39
Energy = -60.75657117 eV
Li 16.0813168697545 9.786829653960561 11.385276668509674
Li 15.514674985052258 13.434453544563889 10.356913507243538
Li 14.911764032268973 6.8188651660250486 11.988805936099679
Li 13.89512865176958 11.627055109708625 12.159377278680783
Li 14.21152277920885 10.940444937908808 9.081655371886553
Li 13.387654553143843 8.901580963866623 11.16322058721416
Li 14.229399575225155 9.274696004895445 14.011450356568151
Li 13.982691648111121 13.71378547203314 7.5463092900509325
Li 13.435156674203682 14.555618483312319 12.735336475589621
Li 13.554302040648865 15.901229037013485 9.775716845188242
Li 12.72967858966201 13.378526221604334 10.029289759706712
Li 11.955536717663204 7.298157719996694 13.302474033042094
Li 11.600735170290138 10.914090664062101 10.520295807092515
Li 11.499723612163683 9.271595121326612 15.912953002030912
Li 11.928327134291855 8.861993722588334 8.405914825380199
Li 11.21175198768148 12.86035437218947 12.604810145191916
Li 11.497179318279011 11.763434137192709 7.724929374914909
Li 10.940111443331423 14.735843111600584 8.189471715425805
Li 12.10785464485971 6.37402855872641 10.274047715768853
Li 12.675747532166184 12.142269025762156 14.98578153272475
Li 9.090896952538058 10.935857588792478 11.997686655449787
Li 10.734861983676048 15.345953131695206 11.3480557429497
Li 10.461052298811795 8.534363294274995 11.079819302996203
Li 8.44820116731573 12.414857730884 7.482139741338279
Li 9.585008589834226 9.61017769371392 6.343647075496314
Li 11.585837495219973 10.124295872830668 13.32556700166741
Li 9.292422777040684 6.263423226683023 11.782629351400226
Li 9.794590933796355 12.902818512006533 10.03505938952547
Li 9.161976974046691 7.402536109403392 8.70324330871004
Li 9.100366900829034 8.763471617303537 13.84666594607932
Li 10.690781913943685 14.743805195309601 14.538436699362988
Li 9.550468396780232 11.722772219251375 14.839450034367426
Li 8.33889317646209 13.656984007841265 12.668362688037044
Li 9.243350535364737 10.207310369885684 9.017917699703597
Li 8.011169689725236 14.863254355781772 9.69988828203831
Li 6.701034144229539 11.018764137370077 13.407114759771595
Li 6.812050911877297 9.59469022914941 7.918835481396938
Li 7.453563496755128 8.844572207657254 11.01351624075826
Li 7.005486302191093 11.827584713602727 10.273321751041259
