39
Energy = -60.58512867 eV
Li 16.20549048141736 17.57649730436703 11.901994117858116
Li 13.48775766696637 17.19499886144922 10.05480625738212
Li 14.021919576093644 15.946213855117076 12.709620617837146
Li 13.538170378046793 14.844169951242085 7.935545402897195
Li 11.005475068973663 16.43473264274671 11.963144581012894
Li 15.593296223372882 15.000031562760032 10.354192244597947
Li 10.737606042041158 15.829595707683287 8.824024370575943
Li 12.57912361261455 14.508838835532146 10.385107160842304
Li 11.931931554003695 15.931476319084899 15.128372995451091
Li 16.758480573367667 14.584685257864782 13.116003822647981
Li 11.272131754108134 12.559300385901361 8.515652173584604
Li 14.508544892042117 13.058058225397259 12.167084239739092
Li 14.339396710698464 12.190197355409234 9.432393278029434
Li 9.719869659157185 13.703348592348249 10.907180805662534
Li 9.83481293411818 14.555797378259928 17.091932236658472
Li 9.298763607372011 14.492503275049177 13.937138782036676
Li 16.857545959860083 11.834073729155376 11.236579090748908
Li 11.937713531244862 13.97522833989425 13.03791748322838
Li 12.080521289658703 11.7348917926839 11.112407597343493
Li 12.888987581098297 14.245925522542652 17.759580897572505
Li 7.455101539162977 12.259897309038434 12.541248134267184
Li 15.680834777911286 9.30570683908928 9.655963010067712
Li 10.122685657914323 11.742959857019674 13.175610675426254
Li 16.718057862400645 8.81562649784715 12.54626753620912
Li 11.486794650917078 13.022906225720675 15.644910375668356
Li 14.423276230408167 10.13419803449407 11.81820200945553
Li 12.473478937455555 9.520417856242695 9.506794035334558
Li 11.118519062586 9.958444417956137 15.394899566381268
Li 14.337480783136323 13.94576329165389 15.03467694137118
Li 15.966768998831242 11.44352226496907 14.1526100279209
Li 13.793259433683845 11.339144928967698 16.628921970870728
Li 9.472960014688995 10.583851547595044 10.488958053196558
Li 8.693740717833291 11.92350831286897 15.573658105030713
Li 14.109062509845927 8.840255812742347 14.39666260763003
Li 14.034251109884057 7.42446733662726 11.506387295018792
Li 12.987443748024463 11.408207612159567 13.89804063845148
Li 11.592279264642949 9.159275257194945 12.411347303357688
Li 8.597589508472018 9.518947357705398 13.451395059553525
Li 10.905751698621204 11.788339699019536 17.957574763675147
