36
Energy = -54.82586395 eV
Li 12.50445529615389 15.351805561409261 9.117588310036561
Li 15.465054571540229 15.720550854401509 10.376202629531695
Li 13.829092450013386 13.757089574316863 11.26981570580067
Li 11.167310603285218 14.476448161105177 11.535816965651733
Li 14.990254178372671 15.023719025784082 13.434594206182195
Li 11.727779624311301 11.772309193949486 12.02612760590532
Li 12.817194637621512 16.61650424601375 11.89370328264622
Li 14.399689958357603 11.800773222043297 13.428189097997231
Li 12.297529434590642 13.670334163226773 14.042047347796826
Li 12.063084580441496 12.479476947332877 9.462383299054075
Li 16.57105610637509 13.011653415384217 11.514004835363593
Li 16.650173788522185 12.686289429477137 14.645502524156733
Li 9.756761120019227 16.692437418912068 10.900382772164779
Li 14.681833997158847 13.108434327845119 8.561415302178348
Li 14.279654766316375 14.165720802385943 16.15382212597071
Li 12.363638168488004 16.349352824971866 14.855339740913724
Li 11.666489817494293 12.99475141932139 6.842842932023889
Li 16.746468786264465 10.192213888695207 12.74122627045712
Li 9.697938141583814 15.349017699884318 13.767619329243331
Li 12.933496582067253 10.384977699354176 7.922113196271398
Li 15.32663817556909 10.01197461603496 15.501820178090874
Li 8.917299883433635 13.016621851956875 11.502255435586605
Li 14.472478986875295 10.895428393685322 10.640935103265175
Li 9.75290993726308 14.211614421160673 8.94874336575802
Li 12.997069425267908 11.633377608209475 15.960060554178154
Li 13.824898392478287 9.012320575548832 13.1314510011496
Li 11.48869849623877 10.209768626509746 14.162051415051554
Li 11.016597971737557 14.116013429870774 16.49299823433933
Li 11.933151117374821 9.35219969317521 10.690061798192572
Li 12.289965439649952 8.485104044052086 16.02183693816452
Li 9.65745217885338 12.339393162930325 14.34850773804368
Li 9.883307478675798 11.076830445921392 8.966731580250926
Li 11.0305241592373 7.632446521390558 13.175751981004046
Li 10.36737186791907 10.996329758161332 16.86963087991063
Li 9.379109536900007 10.056719164081155 12.07327512136914
Li 9.047939777974445 9.12924031155626 14.976029790395977
