39
Energy = -60.44601744 eV
Li 13.053822855565334 7.844127928582347 14.889538851660172
Li 11.397029033998985 7.5493699125763305 12.239866483391353
Li 14.63292945827349 7.2689953410932295 12.265622770971094
Li 8.168120201774675 9.763851078343231 12.278879219537425
Li 10.83757798658031 10.325597343831282 11.19036566309067
Li 13.204187969143279 8.87572529475046 9.883346098204072
Li 15.733555050998675 10.122496210835553 11.225003829196423
Li 15.716197977560844 9.6592275076871 14.331693528002322
Li 8.583967362284055 11.934084116311308 9.881361173540903
Li 13.384243535663108 11.62527176349547 10.650201295027218
Li 10.602050994060395 9.860145454518769 14.19581856789567
Li 6.559293042192193 12.523160489994986 12.359060958334064
Li 9.206261478133646 12.361501660919112 12.82794451006052
Li 14.797469436224995 11.153729104306615 8.361945546438454
Li 13.249277895090021 9.549798748991607 12.788460045693363
Li 15.737609622783513 13.31290272433624 10.647833165309429
Li 7.787550769883727 11.373773381993173 14.939348703187875
Li 17.420023314471003 12.42487785202937 13.024555525679776
Li 11.52025928421838 11.384139408010267 8.427875395244227
Li 8.136302405681107 14.475511977842155 14.444712960109053
Li 10.939200503574128 13.278428988090837 10.650891980665957
Li 13.204098583633652 11.029557943082407 15.556461005759347
Li 17.811393114298163 15.231454734720057 11.476322333408907
Li 10.52606293232143 12.892806854662302 15.534809139555717
Li 14.688246828036641 12.088977154163025 13.270507537086608
Li 14.8731568806671 16.289260401630067 10.706525635952701
Li 11.97123973350511 12.161769054685504 13.147795480345351
Li 9.975464412583948 14.325161009507935 8.347729875951266
Li 13.25431551856457 14.03220209991087 8.930382852608618
Li 8.601879633951565 14.778886564074515 11.19407263245509
Li 11.40563672319326 15.927619798923823 16.02890475293421
Li 15.69371100361147 14.925675935902259 13.476033122142532
Li 11.57842194059334 16.155491438346502 10.593244065596183
Li 10.833737597747328 14.878380552128974 13.297452101440244
Li 15.770759477033904 12.898670086313198 15.802533154978414
Li 13.325954815185908 14.340656293841187 11.86864879593874
Li 13.24846321105641 16.713831403566896 13.563781461359076
Li 13.260893246106157 14.105286247146644 14.893150792769521
Li 14.721316498247448 16.03498780964256 16.25978209610899
