36
Energy = -55.01641818 eV
Li 7.570741580721935 10.44697402514927 13.598879333263946
Li 7.04339845952836 9.352471434517605 10.556767669540978
Li 10.124329273327623 9.065331349053306 14.615686289941653
Li 8.086553461789558 7.372660131652483 12.740411808884758
Li 8.375085389213 13.790869180109496 13.998199089036063
Li 10.209370874296484 11.835691801120042 13.292350838560877
Li 8.287866922232649 12.126937439848868 11.242742668673117
Li 11.319696521796839 14.446258639904025 14.574574781569094
Li 9.543218078011575 9.446796996694902 11.767144917660852
Li 11.182299689959693 7.166444150518818 12.460256945302875
Li 12.231822076678936 10.011634390280989 12.9850849561105
Li 9.529320780259429 7.452607107168444 9.762792086351693
Li 10.396131871167066 14.345681355829901 11.773101688617785
Li 9.23885067001366 13.721196221641948 9.039018625421685
Li 14.216063617736845 8.11995507464193 12.610176518564092
Li 12.132488639769466 9.052879555077533 10.378400968167627
Li 9.459979650330725 10.37221435012532 8.996780692986034
Li 7.842154595887996 15.224565473840375 11.34672011242744
Li 14.477165471262262 10.812548513328416 11.341042457163216
Li 14.727727319527926 10.79175081572286 14.322941468700172
Li 11.809119302901822 8.95635139095064 7.654831908039076
Li 10.3387430234193 16.622318882004706 10.16963980344207
Li 12.059443974145012 11.670098877565252 15.50830203429477
Li 9.88121481074161 16.689789278428396 13.221344340426834
Li 14.94527567662079 8.74211988323988 9.513732605640914
Li 11.173433854966522 12.091155246496408 7.367673386343944
Li 16.831293159092468 9.755863600353656 12.164144449759437
Li 11.436150627849912 11.895992685213823 10.47577893488618
Li 12.973927301091411 12.846288737817519 12.80343977060657
Li 13.658759698791954 11.32725559874316 8.656859405737505
Li 12.076924878199838 14.391868740471597 9.209578820249716
Li 16.16718635799903 12.757592117619227 12.630800659696193
Li 16.567560218388685 11.532066366675755 9.625239610288805
Li 12.875840115828737 15.715801213724564 12.193807090943325
Li 14.472750023387585 13.631748104893482 10.433421809489753
Li 14.346681996981216 14.002359219778816 14.858784312675539
