33
Energy = -49.10272152 eV
Li 13.860968278139445 9.443719822126877 7.929902688985184
Li 12.109182441500959 8.557075287900263 10.351086461154312
Li 11.20712052370907 10.524666463362829 7.74940581821151
Li 14.548672623431688 10.416364529016178 10.79632085350075
Li 10.77509777807812 9.689790820476116 12.628801910657335
Li 13.658184536711545 8.670957691463721 13.226340249911853
Li 9.376243655072317 9.914397875081825 10.17118767962381
Li 13.105038617498533 11.312795549012861 5.505767719868873
Li 13.48666631750631 12.33423753722446 8.217393436156119
Li 12.945894503118454 11.314949524230773 13.114349017101484
Li 11.37779270388234 9.141861020689968 15.21103015236594
Li 11.960017861349716 11.416688456111249 10.385681767887935
Li 11.02944021417587 6.958385610190598 12.909498555629805
Li 8.331264647664613 8.426490761871111 12.59859864597049
Li 11.071028739210162 13.30123180108571 6.876381737671753
Li 15.730758539683784 11.9377231385094 13.51004413924923
Li 9.703920709487463 12.836570431451456 9.612120349133736
Li 9.892455371377343 12.272561937518958 12.555943783741075
Li 8.704604861208766 10.635403555359058 14.576675544243239
Li 7.407295167359723 11.53416716154525 11.90456709752893
Li 13.925169549179955 11.001378967926565 15.741698655515625
Li 12.043424441744286 14.722215653231261 9.503733599560732
Li 14.511242064968105 13.487766422691081 11.118023042723978
Li 11.960386756627994 13.761911342039621 12.075408603412873
Li 15.645625196638083 13.735903063827026 16.127903792997405
Li 11.194579712682096 12.359785910395603 15.110236696995463
Li 9.604676058971242 15.158645123965783 11.68013798736164
Li 8.38183571000376 13.758933398629866 14.29492032986433
Li 13.726079417524053 13.84672371338381 14.221142353630368
Li 13.183633782957566 16.222437109356658 12.356814543828648
Li 15.9411560695335 15.140410146889064 13.429215808773119
Li 11.095319582147827 15.263955430442131 14.362476968830968
Li 13.871995769319101 16.27834509147399 15.472714530751281
