35
Energy = -52.9841891 eV
Li 7.482840011843752 13.145669602400657 12.184554478300576
Li 12.843255304735765 15.181868758304951 12.224289843854539
Li 11.5410743270213 14.468741099517215 14.785095729455914
Li 14.963437221647364 10.94325382313148 8.43919437961042
Li 9.338848332266004 6.307609043579062 10.18001308972315
Li 6.366001264549563 10.342545442612765 12.380233701601433
Li 8.202594977187674 7.91328585821563 12.577393996530011
Li 11.050698316168335 11.77918466839579 9.584554543141456
Li 9.180305034906151 10.577348019986966 13.464379130197523
Li 13.47257917775144 12.581059069666546 10.747619164589254
Li 9.611881241982587 15.549032464004389 12.421714362885458
Li 10.684672106163752 13.03523519080302 12.398509196656056
Li 12.959614783829286 9.626110328426869 9.70351520393629
Li 8.690117541974852 11.06052891295076 10.817682954788285
Li 8.735917073393225 11.211036663271953 7.874989417671091
Li 15.272597135789118 8.016978373932568 9.677605032593203
Li 12.321196151786365 6.830575471490195 9.596958343968604
Li 8.585747970133351 13.739583748039346 9.612111259096432
Li 11.050246732973276 8.312019557298246 14.106346769507228
Li 13.31059329182156 7.88441277186096 12.14707217812252
Li 10.454909599636318 8.73306315358691 11.130857929721031
Li 7.520648798755387 8.807699014618775 9.803919943986552
Li 13.71230512833526 12.612545095143952 13.719048393450196
Li 13.287450464630666 13.574487073882436 8.041935603984081
Li 11.433728798027927 11.408737207634239 15.1830521676961
Li 13.444254393226009 8.41758660902215 7.217043748295811
Li 12.113913197178892 10.529774460203585 12.451863461927042
Li 10.392876205577899 8.775357339147536 8.366696001209224
Li 8.873193065127515 13.178488576894873 14.767373541914521
Li 15.038693303871637 10.332395415626006 11.73936055412597
Li 12.048491375162488 11.078218722377866 7.101137629221437
Li 10.43031937576254 13.672019155935978 7.157576172782138
Li 6.191759282160883 11.739996490266426 9.611008561237986
Li 13.914549444124095 9.662239533265852 14.571460224835612
Li 11.224425850030931 14.687029292426548 9.888628659172163
