36
Energy = -54.55348806 eV
Li 7.826873613682193 12.978322602867546 10.942717745422344
Li 8.813449329044623 10.059502754052465 10.808542311578645
Li 8.492368290414797 15.399671899353514 9.0724193518823
Li 9.921158962964707 7.468403668376502 12.154608889748854
Li 10.378479166273056 14.093166365388788 10.54936660823751
Li 9.603199663722854 12.209009362114182 8.569060138461346
Li 11.476699609450108 9.860021782743837 9.510907601807354
Li 9.117532989068838 12.980446852650855 13.538890082091987
Li 9.483851632014282 7.777424878154589 9.059122964117842
Li 9.413953395783693 10.109917142385552 13.676302363209212
Li 8.683386430583196 15.687349495392358 12.314997434864681
Li 10.900767829995445 11.739216580456166 11.553172916990981
Li 12.038288246885902 9.193620964558342 12.27591159210694
Li 10.347609837113971 12.10528713367483 16.08380357259477
Li 11.634649295062427 16.457737578615532 10.987779261379828
Li 12.763561424305585 6.8006121110122795 13.383617526435097
Li 12.677912491081361 12.519353357250958 9.090746106776995
Li 9.404572286885912 15.130454017321544 15.552845904241964
Li 12.12388841304094 11.713670562847595 13.962184972276097
Li 11.432120828254444 14.997310515844832 8.125207399820884
Li 13.341261489848467 11.286121216594026 16.56229350135492
Li 13.923289559119082 11.107310787880614 11.338928797891215
Li 12.308184449953204 7.14648876608823 10.244797478486559
Li 11.18735416354875 14.680479953217972 13.364441307160915
Li 13.989933830999416 15.868599158796563 13.159221974868329
Li 11.600733048996624 9.076867752506107 15.188960649360778
Li 14.347843803992353 9.676857878451592 8.930216870680049
Li 12.545822495916356 14.138804244712624 15.676848251319115
Li 14.159462173072093 15.231430324483647 9.709771486682094
Li 14.78921799861549 8.347708898758059 11.48385363197845
Li 16.037851698968613 13.951047942906698 11.666233619764187
Li 14.39146876825099 9.757724994622784 14.032211313035745
Li 15.620262497675132 12.387276677720497 9.281112383739734
Li 13.083789255780959 13.744489887702976 11.72338740558794
Li 16.608149800759165 10.859979649473088 11.791957774659235
Li 14.73562540433815 12.773740703147185 14.002186660922039
