36
Energy = -54.75140089 eV
Li 12.808074199316778 11.174306669731196 16.79022890020046
Li 15.533178716454064 12.268193452214067 15.506454516591011
Li 14.307612201091334 9.494198356210157 14.541937251433616
Li 9.289025892577222 8.244608899355924 12.887486485325601
Li 11.440448534841494 10.196095832251544 14.203726111825738
Li 12.375269864230804 7.849606186533913 12.404594558968878
Li 13.043932955731215 14.209532717100638 16.688517922200322
Li 10.422899715543124 12.848797283468512 15.360239966018701
Li 10.453775133420223 7.656133381752649 9.966846014502735
Li 8.278471987506965 9.778783737858511 10.553901257521707
Li 13.19227930484527 12.6464657843563 14.402134652857766
Li 8.815086141746288 11.19720891647332 13.105804348165716
Li 16.57510123855573 10.556512418131849 12.81166524373513
Li 15.20821479750682 8.177364359607926 11.519227765547337
Li 14.803225603085272 15.122145964804993 14.353111770013989
Li 11.00542443997821 10.113762192581271 11.302989866231915
Li 13.71880722241114 10.591251136876703 12.121922613299134
Li 11.704465058905743 15.22767706998382 13.958794508960544
Li 15.160249199171552 12.929939697138304 12.341798492602859
Li 6.3907803698515835 9.536643934661738 12.840638929804202
Li 8.855013817487478 14.220116969740534 12.75717568068646
Li 11.33329832452324 12.720221156739456 12.454236786755077
Li 15.479436447098495 10.815326438276362 9.879615769844909
Li 13.139375631869658 9.1553451806281 9.480897361122016
Li 10.707192934639519 10.57094489788958 8.550540438945504
Li 15.377280040600592 13.717948812700662 9.447733049785631
Li 12.738264448257222 12.484206721835195 9.993617273611232
Li 13.44730483555964 14.927830101478321 11.54772595744008
Li 9.501372870208483 12.51261390682628 10.399270119893416
Li 7.893992284858516 11.841462090030143 8.279439863522152
Li 13.48772277576564 11.920167446803271 7.4533888942281985
Li 6.78776800764059 12.281558743009098 11.251335819200106
Li 10.787056877672075 15.13280317513692 10.60904310884043
Li 12.993840328463655 15.06645207328287 8.46631656008871
Li 10.552667811795645 13.509559482241608 7.9710844538161885
Li 8.021543169327506 14.7115162920418 9.535230631210279
