32
Energy = -48.2795257 eV
Li 17.317138016601277 13.088364783120086 18.025695764174486
Li 12.005694483173366 13.330604396679188 17.730753731649113
Li 14.76916113129367 15.750015884442025 14.31139655621992
Li 14.859319777341407 14.60627135259547 19.064050027866333
Li 14.97446049736573 12.371809367562191 11.027463506419068
Li 14.519419183679505 13.281828856395792 16.710301595516626
Li 13.100955128483582 11.107518064674887 15.636092378425396
Li 16.208403943414044 11.162998679529816 15.93737022435436
Li 10.026636827970897 11.351511518607275 11.607596469622765
Li 12.48067311689011 14.050656048197892 14.831367993793222
Li 11.915775579043375 16.365598104600735 10.49275182092408
Li 13.491011117210828 16.0842205107602 16.761979120701923
Li 14.597923502674945 15.070205104339808 9.562008514626214
Li 16.508317811035678 14.773556316832197 12.161844190968262
Li 17.94379282431196 13.327378722747302 14.555144480063614
Li 12.730218212091366 10.205350806164178 10.652826386165813
Li 12.087266296321191 13.202706807455668 10.007323463462422
Li 14.788659069529102 10.200531989765492 13.221944424818334
Li 12.197755797897896 16.851328656192123 13.708047643889874
Li 17.423487081984028 16.81798615937455 14.43095178345483
Li 16.400434752207698 17.088778781132408 17.495972235293223
Li 13.4529741821022 14.679027532749505 12.008774541326243
Li 14.723694447393262 17.33009842828825 11.927683984945228
Li 14.745189593042264 18.365827982111817 15.031477439842938
Li 10.34299065496821 12.0004642412937 14.715898469739978
Li 10.601259012771642 14.329482455224788 12.47682949015801
Li 12.494862814571233 11.973310139117798 12.759419467425714
Li 14.550198516116508 11.442407380432654 18.65100411692052
Li 16.47335901813223 14.868208855042802 16.147885508526578
Li 11.604485958143451 9.415270439046463 13.396067085879595
Li 19.056630888756022 15.459563924048183 16.79478298030769
Li 15.103693227585543 12.967491683628587 13.947041809291706
