36
Energy = -54.90509332 eV
Li 14.740890181761163 14.935508761707498 12.282233055385007
Li 16.198306564130796 12.390153941598438 10.858532382612887
Li 15.24770014247816 12.381498290673399 13.94162758183705
Li 16.707817397008885 9.761818960839419 12.473613004784843
Li 15.119752199530412 14.83763179009179 9.141831170383067
Li 12.543770289047542 13.250203096957765 12.950109932198735
Li 13.58808094120087 12.825799110943759 10.420906566591551
Li 14.635086827880583 12.096757308283095 7.9164514065283145
Li 14.782032692579696 9.751369681505823 9.825496226351154
Li 14.421075878953653 7.559060586448798 12.155845223571163
Li 14.069796581634684 10.477171207697287 12.344320523237727
Li 13.271658834377863 14.766681821005086 15.109411837802762
Li 12.010623017634598 13.912958811008902 8.11973197759418
Li 12.497092180128552 15.615519085860607 10.430467929282939
Li 10.968750199775881 15.451707603737947 12.880242549769319
Li 11.983085842725897 10.932121484795255 9.15441452432487
Li 11.585583442921596 5.888510369477713 11.801222324385494
Li 14.747091003795434 9.30636326469461 14.771967644618323
Li 12.091340404997197 8.457484274412757 10.62782401451235
Li 11.971255392399724 8.374142030624823 13.556131957855063
Li 9.373139447177506 15.396806928020853 9.733300352926696
Li 9.343760045010187 12.492793272297497 12.862284401328205
Li 10.279173949832462 13.563850985824295 15.1308728168908
Li 12.436709312086483 11.329573851569181 14.923265279555013
Li 11.427847885696233 10.83676069977808 12.136892888384265
Li 10.653737873215821 13.289136081589954 10.607992648141392
Li 8.092803896760085 14.892335848756632 12.798771565401607
Li 9.27577217531842 12.121362348601762 8.165336322889837
Li 9.880290524673562 8.682271162730544 8.629495160322056
Li 9.403633855995707 8.213144441612275 11.774038662069666
Li 7.368123901969214 12.562837176729042 14.781999936105228
Li 7.554077749186408 12.856312170241752 10.546076759316813
Li 9.570845655422685 10.251925269414572 14.405347139745308
Li 9.334179077167041 10.644876384039922 10.488408460275767
Li 7.2625445737801435 10.497224276990162 12.419052448829529
Li 7.025017202683849 9.881959512583105 9.31207976442221
