38
Energy = -59.3406047 eV
Li 10.279580213585366 14.29402897302891 15.14704337319046
Li 13.3610150818722 14.404422616438492 14.955718165562127
Li 12.00189803611438 12.194450417940502 16.807424290485624
Li 14.495387179064256 11.242973569532927 14.890825241415508
Li 11.671878753247842 16.946667952593867 13.96301353277949
Li 9.34581187554135 11.075591985006353 15.203956696279974
Li 9.017426143985643 15.69256721153969 12.517091314175474
Li 14.171327248655917 12.92314675860161 12.396574505226404
Li 11.833431055251031 12.134350129915251 14.087663324002245
Li 9.038095557011323 8.003101941993872 14.063982145143358
Li 11.667525777617872 14.623708672520088 12.553944373448342
Li 14.227233062881036 15.862712923890019 12.217490310371879
Li 11.965042885101932 9.363713622179652 15.014835185951974
Li 14.828809363869688 8.17659735068833 13.742142270639562
Li 11.505448821613713 16.73126105935823 10.889353349790833
Li 7.463024427104216 10.298882011827095 12.514246326644795
Li 10.308910159285334 9.96884944979487 12.67621314894404
Li 9.26660064140454 12.762708072506975 12.69069437676432
Li 11.866975630511782 7.506456084386237 12.465930777510327
Li 7.100869492514791 12.969621537895984 10.7160998508488
Li 11.666305876976754 12.053834881670737 11.210719546731555
Li 13.293725248530679 10.064261360354164 12.506706192027098
Li 9.15001040931226 11.039165913968178 10.206690780947197
Li 16.07996526744379 10.553648375011138 12.028382466458254
Li 9.928270821995262 14.037052015053368 10.065008029505254
Li 8.974795437708137 8.168174350255406 10.874429461513891
Li 6.784057575615774 9.994542857241674 9.380938250758367
Li 14.111102155267567 11.180999847943118 9.922147266599058
Li 16.102164657966057 13.221859790966564 10.201432174675567
Li 14.509240177906666 8.329545569407417 10.577215012820702
Li 11.674046956261163 9.379562679413176 10.08767391640267
Li 13.158022294139908 14.135707748059534 9.877668244020303
Li 8.34531923989952 12.221859415101534 7.925815551305733
Li 9.664949783745714 9.366985088384341 7.944438435662585
Li 16.42119947482201 10.244739472888408 8.850773592858317
Li 11.517008981730424 11.81156763761679 8.351026319553476
Li 13.440850651490962 9.468698549554606 7.7378283914487955
Li 14.603080493117073 12.385161520406747 7.566740602683829
