38
Energy = -58.41916034 eV
Li 7.290774330390173 13.978082942106676 11.20352332698958
Li 9.516500646773261 15.509277139031825 12.921240037938404
Li 9.891296940009486 14.87880302548312 9.615152267268641
Li 7.852576041372833 13.150060338801547 14.171496631994705
Li 7.812939016922943 10.898946861824097 12.171032311975722
Li 8.927775259472737 11.914627143990018 9.43131777516942
Li 10.542886177647084 13.464516643697447 15.18496860196964
Li 12.174154631247601 15.79467027809818 14.554120785461546
Li 9.75915610076887 12.99820926913389 11.997528616494119
Li 11.716263281617472 12.737286002711281 9.988429988263714
Li 11.508344435175621 11.143435022647457 16.73983175097138
Li 8.474732648428141 10.290714433683641 15.687253072151039
Li 8.567124551572912 8.92602085583105 9.825044049899661
Li 10.988143381686951 12.835138153922657 7.2893783554958
Li 12.283037354991587 15.540334839411067 11.416193218055247
Li 9.35008627060248 8.320490241604999 12.958991205270243
Li 12.388986483924668 13.284815811975506 13.027149744557516
Li 10.264745867123725 10.941080961300578 13.892264427447884
Li 13.093844386013158 14.762476751295134 8.522152098163797
Li 10.705281499091598 10.120269070164918 11.225822629952285
Li 15.234671015740588 16.166579224626915 10.374497181876093
Li 14.778830442377883 14.984017087448414 13.256042990460394
Li 14.490845245648153 13.538117292579251 10.788116353718056
Li 12.890617011780376 10.753634104991628 14.198744674052966
Li 13.775533634355297 11.642965434276311 8.42329454334484
Li 13.608193333400623 13.122205460115223 15.682210800083148
Li 11.220738967508801 8.577922741016812 15.441142692599964
Li 11.237560441439754 9.95894397057892 8.503288098155572
Li 13.383212010287657 10.975749500895295 11.4417425390795
Li 16.094282942607876 13.793363002900733 8.52226559854462
Li 11.087193580072903 7.372546559997497 10.338807993543135
Li 12.494966553416509 8.324764096600386 12.781813931660398
Li 17.147796723654505 13.925501750966 11.442363761916962
Li 14.353250052178133 9.533262069510776 15.936348767595739
Li 13.819964117982018 8.78063147140554 9.915531123909282
Li 15.386319985331742 12.059693588721185 13.362254385265858
Li 16.062697948590845 11.105824028718745 10.390366955616242
Li 15.264559133885644 9.143891285042333 12.795178764080534
