33
Energy = -50.27206575 eV
Li 15.24418739791242 10.78997457742581 12.120043294440086
Li 13.665628041595154 13.59367156945102 12.606162059421395
Li 12.990462123173156 11.656065271913334 10.392350685713184
Li 14.635319417032681 9.86903608557976 8.788244948545362
Li 14.436066762536976 11.741048883011363 15.118083874345091
Li 12.739752300755244 12.26665543828037 7.567168001116705
Li 12.191354546555448 14.50517578707557 9.849094331838284
Li 14.132219561335399 8.756827199305775 14.243563525736255
Li 10.25395698104941 14.213114796307954 7.322010696045535
Li 12.756955634574597 9.39271151038514 6.245786554492514
Li 13.20786766841637 8.667599818502948 11.189408279431426
Li 11.558843442658901 13.136714536613376 14.806951868739565
Li 12.632240991037364 10.861557961318494 13.243068825261025
Li 10.945175130876402 12.99780291906576 11.971034933107745
Li 10.304054259846827 12.244416826931024 9.196993715159245
Li 12.965900137436693 7.166355455023269 8.43643162536149
Li 10.022514853711694 11.07091674794472 6.653577946195994
Li 11.200854713942038 15.600963449412939 12.696127834835798
Li 10.203835096788575 7.846727151851465 7.143924699394027
Li 11.686198992065632 9.624270904667473 8.673977670338964
Li 9.11374650328461 14.67109206290938 10.403456764718348
Li 11.76119496336136 10.170996673502357 15.845112583734016
Li 9.697286401890945 10.976853378534363 13.76731698587943
Li 8.713198609336969 13.777308631351644 13.627605959714181
Li 10.429137470881745 7.465796795953273 10.270622333018945
Li 7.6979975567075165 12.67409088253295 8.26614296654096
Li 11.086538091807164 8.291446799219084 13.429509903984911
Li 9.038767487109913 11.873771952961029 16.240710146441582
Li 8.64362440662112 9.741466732570494 9.078078326158709
Li 8.125318906793773 11.89485307155685 11.274029472910945
Li 8.218965572495465 8.913423994992689 12.182814335793946
Li 10.57670224500117 10.158491688168821 11.24249648591805
Li 6.93350615818136 11.274018607408552 14.043509273194871
