31
Energy = -46.70552554 eV
Li 11.487197973537384 12.368040765270074 6.722030726274778
Li 10.271071809001642 9.595922181018993 7.309243738743184
Li 13.416175261131896 9.992952118758746 8.002204595794097
Li 11.6387175704338 8.36476237153204 10.007394025916172
Li 8.608328713347234 12.303770447453864 8.141684773398723
Li 8.700629690849478 9.715005954572261 10.121403233534666
Li 13.578884235481688 12.84726126901296 9.094520587692946
Li 8.99987289589313 12.591332842783517 11.07482367509283
Li 11.065581259703311 11.27858370970883 9.21854503425548
Li 15.962954106279886 11.016192785290189 9.982915986082697
Li 7.691916997741714 14.88294974598033 10.152174578247132
Li 13.523113837932033 10.375493284578306 10.902248578428381
Li 10.764439577640063 10.38727877722297 11.840284175275306
Li 8.365846068312237 10.717943925722237 13.385689187752597
Li 10.632395149886309 14.246361369991936 9.235822497681758
Li 7.816826017575973 13.85053260039839 13.497204643413438
Li 10.121450770834393 15.107393414104378 12.139838585488445
Li 13.133720391387836 15.285618728737454 10.939806508274307
Li 12.034133354157982 12.870954641636764 11.44485510633686
Li 13.240011999502789 8.09623682502758 12.66332810446166
Li 10.422421601055627 12.578299269149765 13.721665639333217
Li 14.990877518528134 8.144501102603849 10.131400321660204
Li 10.688817246005922 8.669506173931186 13.926603866712187
Li 14.663835699176733 12.80154092851238 12.296925324190576
Li 13.408269916127455 9.12695434266715 15.699730400257918
Li 10.130146191754298 14.134415490227854 15.892420452354042
Li 10.578479187939884 10.91968395769828 15.882750146482927
Li 12.520524307694636 14.390760689513487 13.860558904184492
Li 15.520406492988187 9.886207135874246 13.032774845038944
Li 12.76317152211386 10.854156231854937 13.700345892833711
Li 13.103718905918676 12.381271916415194 15.974097057508502
