31
Energy = -46.57263806 eV
Li 11.923555226445997 13.563985974367403 13.738463123722674
Li 13.047538806020986 13.7883159627937 16.19227181894335
Li 13.447852607568962 11.782684230200713 11.731620719195949
Li 12.725604769068987 16.10409079292765 14.15709445195111
Li 10.160196600433315 14.736725622777115 15.361604087426755
Li 13.598945552166134 11.125146438856952 14.511577248146157
Li 14.81517029147941 13.721947062324181 13.45697931802464
Li 16.12425219026838 11.25912527650145 11.907310875762807
Li 10.703200442679824 11.62006242670427 15.585170428972521
Li 14.089620780618043 9.017479308370431 12.372821279193396
Li 11.038301326352373 13.142134340816167 11.121485951131383
Li 11.442413271385446 8.369324980867754 13.814322894265931
Li 10.1900968518242 15.51993557468917 12.278181181932126
Li 8.78979004610936 12.750115963128072 12.983069370744579
Li 13.131401724203409 14.891112493476225 11.258352771079872
Li 11.074064832152915 10.940782895061949 12.94479909776887
Li 8.568931860466883 9.376656527056328 12.543741400704857
Li 14.234846980144582 9.664841377506399 9.493193685476292
Li 14.402050541712265 12.790077201015247 9.337835185128082
Li 11.49391936411088 13.859295212426986 8.449118524738685
Li 13.120882419861875 6.898293598286897 10.418603214937924
Li 11.922496249571381 11.31125905633785 9.314367306171455
Li 8.555271547073477 13.638872910092386 9.94954745753589
Li 11.582831810235545 9.165191568790856 11.027484902864373
Li 9.394090625760885 10.994218343077792 10.546187151849246
Li 12.716718201998786 11.202283667015566 6.804386583196156
Li 11.390293410315783 8.659338707520718 8.306492756673027
Li 8.425848085787472 8.780565503702473 9.374451876782853
Li 10.121606701454427 6.979693067567174 11.151382237659185
Li 9.501225304816371 11.31508923308826 7.813914985447365
Li 6.706409988459562 11.120141562110225 10.323170433316989
