36
Energy = -54.15197883 eV
Li 11.684694717338475 13.889121366150018 10.46034903480406
Li 7.4287492837209745 12.9141802697173 9.048849432297434
Li 16.899158414287065 8.581105511052717 11.938280457283335
Li 11.712295641920784 10.983310409608329 18.312094234382847
Li 10.291036449169416 13.762694117304083 17.635331078376943
Li 8.302745791859996 10.16880300663288 10.423542969649946
Li 13.604508489518622 12.176754262975848 11.72738473750403
Li 14.05710067367363 9.288469609069486 11.27754589978243
Li 14.4523352115765 8.151336737533288 14.148224487446832
Li 11.25072502905824 11.937220054808865 15.759731369602488
Li 9.52445731771953 10.667790745574933 13.617565740812415
Li 15.60516261481808 16.72151446810143 11.678623809658554
Li 12.567073786510955 16.608336797913115 10.048002900269454
Li 15.521721686139903 10.728473951562863 13.353213411302951
Li 16.193402049040564 12.661727337572124 15.668612802499295
Li 9.647317050996818 15.19670242062199 9.24989777364891
Li 13.218845491527924 11.626616463039797 9.042433428646337
Li 13.41389409537592 13.386923275190073 17.220833821368988
Li 15.975926031881617 13.800583388466451 12.615831942694355
Li 12.514843680289042 10.327229494713634 13.691981723087208
Li 10.316442677713011 15.665033928179502 12.29388278477652
Li 13.83310522698 12.937568154955148 14.437168031234009
Li 13.920624789232624 10.517018062610589 16.145339061182526
Li 15.232871912192127 12.846081338939838 7.3449215127097975
Li 11.397252483145525 8.86547274301949 15.82878051846379
Li 16.015655947559846 11.342241013247184 10.3198530816496
Li 9.054008966419108 12.881767463985058 11.385870476551716
Li 14.626099151366642 14.331247780597838 9.870260635624101
Li 14.989554751104064 15.488198173507545 14.920979662475059
Li 11.302149856189558 13.030863014535786 13.148600627012048
Li 9.045067375671866 13.795550457154468 14.636207253784832
Li 12.408197824921535 14.231851088629437 7.767724209221753
Li 13.367381421910064 15.17199167662438 12.474393930189436
Li 11.195828175986165 10.732382729690345 11.132828234824277
Li 11.77515010208684 14.971526848961034 15.146386750151999
Li 10.170611450767014 12.128307457423302 8.744467794698526
