30
Energy = -44.76040362 eV
Li 13.102281654421107 12.397123378880954 8.252264144285343
Li 10.571426422737245 13.638632459306734 7.105417978578087
Li 13.329461235353275 9.19154162312073 8.824691605705006
Li 10.69916449356479 10.497362950097259 7.722201685232066
Li 12.469099477163372 15.010694053984151 9.702766332044195
Li 9.257357863569064 15.214291894736592 9.325041863295247
Li 10.83742696536662 7.403320148579351 8.964761600376955
Li 15.065223068115259 13.096611883873123 10.749408358504466
Li 10.621006280473495 12.837797079127826 9.804827077380217
Li 12.907018822489315 11.133394737592969 10.630182400218873
Li 8.21591018950905 12.16112567667553 8.740308860745735
Li 8.278412543022016 8.915338408107615 9.03323648769217
Li 12.776509302948943 7.766279409856388 11.543480284484154
Li 10.577697525671713 9.788934208018949 10.446026466110627
Li 13.931693807264242 15.4048919001429 12.940629958176128
Li 9.60674100684773 7.652992271143466 11.817956950240108
Li 8.2515969416314 13.503499031832687 11.56192523960239
Li 10.616693188387014 15.148068227336354 12.29563602016911
Li 8.036031397592698 10.567774432999649 11.551114618282847
Li 12.65896911691626 13.329514860331194 11.94673848692621
Li 12.322488549624712 10.003234716411868 13.089472737463879
Li 10.409259660474369 11.94309665406031 12.558229612469972
Li 15.028051305562476 9.88515093553932 11.682665957191531
Li 9.479648000568817 9.7219464535995 14.029193567113722
Li 11.890646891377585 13.634102418806444 14.624647359728776
Li 8.91270136103268 12.7136363565 14.574315746295971
Li 14.331425439093668 12.057275805227727 13.75737293544839
Li 14.359102325508085 8.93701008427046 14.550399096007123
Li 11.598756659611624 7.684204309960366 14.490211448604347
Li 11.826108820726114 10.729063946503803 15.652785438250868
