31
Energy = -46.60109154 eV
Li 11.796971515185591 6.606049204109432 9.253384827780588
Li 10.436172833545005 7.606978480618916 11.953399143240704
Li 8.928475141728466 6.851303121151175 8.965958834598675
Li 13.099580354718025 7.9074973015352406 14.025949625080278
Li 13.625431901606504 7.121302326539467 11.278114307054029
Li 11.317897442878454 8.183874591363574 6.837925281923622
Li 8.569898655795447 9.480638060964045 7.41548256856229
Li 10.591217805470304 9.142908858128296 9.433386532862793
Li 9.766517707138195 10.710865215399718 11.814349254708642
Li 13.478950143957372 9.401624387693069 9.089578082927913
Li 13.890462954647443 10.902608912934642 14.069328674599912
Li 7.831448720490001 9.15398980698628 10.5790576590201
Li 12.553450218546217 9.663928159052722 11.848148985209109
Li 10.833782011698517 9.921949262072355 14.276609896843722
Li 15.411665525100533 9.341038837686506 11.885846873721258
Li 11.865074907379123 12.653721898570492 15.639341466058362
Li 11.820768897541244 12.47851151005454 12.892784341089975
Li 6.227409513345177 11.137149879361674 8.60389337504243
Li 9.059918168708341 12.431606550587581 14.079900396809379
Li 8.862142886380907 11.685543578975837 9.205259246498317
Li 14.284790820052486 12.075505986028771 11.19500684795033
Li 7.082522790298323 11.934047493529928 11.609502188802225
Li 11.688040474165295 11.867941309053089 10.004069822431248
Li 11.144882100444987 11.204363399695094 7.26527297336039
Li 13.983501737929437 14.01752614715959 13.671479984747046
Li 8.329110326284813 12.487980561731758 6.5995327159044255
Li 11.00346064613041 14.955605011124726 13.786762241226478
Li 9.550490177987415 13.66074500184621 11.337443906539814
Li 7.319279086944068 13.965836739700277 9.159332104298743
Li 12.42464261673472 14.594867868247714 11.00602867646024
Li 10.369276736342316 14.02938596539351 8.421380579132185
