36
Energy = -54.21595575 eV
Li 13.854565423334375 8.87833556855231 13.45297555228416
Li 11.236315771719811 9.70351934842937 14.534781920453854
Li 16.186539491806286 10.767043097661892 13.341398082164106
Li 11.50041446697946 6.8060853889220265 13.894733628602436
Li 15.817222858997578 8.868545031299467 10.912284824241064
Li 13.573069778800965 11.767847702843902 14.047076358572552
Li 16.593512320665653 12.111624882948858 10.768577051884918
Li 12.798416170316827 7.773772253858527 11.164943679375902
Li 8.4865602112741 8.460414497237116 14.51336134603356
Li 11.504047411364215 10.928665537468442 11.959880714644973
Li 10.937280726704874 12.825707533640072 14.295888180639546
Li 15.28199247514081 13.801821537265907 12.71511156416093
Li 13.961797490479018 10.951184530772428 10.76020217005181
Li 15.510734178804631 10.972721442989508 8.326413637371289
Li 13.920705425869741 8.49770647951599 8.48006884347756
Li 10.031037037025825 8.481046219592299 11.926535468367096
Li 13.23610169017822 14.849057142080765 14.598446122266004
Li 9.048026623726502 11.229063988251013 16.01895860576832
Li 12.589042420021547 13.727495881329059 12.013004931365073
Li 8.871996246000574 10.987981505116847 13.15801513928533
Li 6.477587044915528 10.942591898233415 14.2852139472349
Li 11.324954951434764 9.513102316983527 9.256465878685129
Li 7.075622043317621 9.239448084764305 11.748773414394016
Li 13.700982203900194 16.281426558239634 11.778223689089621
Li 8.190102502108482 13.704456243395052 14.158142673689069
Li 14.044568102539232 13.730548090991599 9.46067210564611
Li 11.364802959563239 12.516564853490713 9.415525674961888
Li 10.802811392711323 15.739415722693058 13.014469387613307
Li 12.78908728514389 11.290149060377017 7.378035431515934
Li 9.017823025082576 10.903786066830786 10.172879006584942
Li 9.702997623172761 13.383899594906008 11.6540042355396
Li 6.922690661124693 12.436009844626136 11.438229346592017
Li 11.365435864411321 15.39742848432599 9.92956758593773
Li 9.81869400027733 11.40462851592728 7.244590657851391
Li 11.525677548395272 14.097236528238504 7.111502451227157
Li 8.862427800772679 13.79995009311899 8.861244517401351
