33
Energy = -49.18337727 eV
Li 6.755892732063854 14.01074356569147 13.013102383031383
Li 7.19783540922068 10.88597678165894 13.13043728209137
Li 7.180810538874656 9.413601092382219 10.342684443960195
Li 7.696890187843851 12.630286910261589 10.145966076292828
Li 8.353217889926624 12.790657442949348 15.42799551056603
Li 9.957609862204896 8.269043597756543 9.218226666689485
Li 11.038438514687252 9.70590094502775 6.582828407389199
Li 8.16604107932874 10.58772754361805 7.804853130142565
Li 9.297556070293213 15.42438967133938 14.274479738255932
Li 9.302075682430583 7.995687214391256 12.310892187710483
Li 8.818025414930258 15.372980605779311 11.183284768803862
Li 10.12210125505714 10.328772581920793 14.269472847743478
Li 9.353056360923787 13.094537368670785 12.878921755786049
Li 9.596770504356167 13.20926555758894 7.5646886944132925
Li 9.307200254943707 10.707953851980708 11.413262602450244
Li 12.465673014050758 7.101104439462134 7.539626837084146
Li 11.961761881454153 14.620665684152119 12.520650640765913
Li 12.446342161020162 6.887809553112244 10.725611878815226
Li 10.582475199151308 11.02075480278274 9.053553614590966
Li 10.703658688446092 13.37274764770659 10.26363006635737
Li 12.952095987979352 9.40529673855999 8.955848994486406
Li 11.443302942547618 13.09851804087002 15.099992955786309
Li 12.226285771745236 8.010351151918858 13.668201516223736
Li 11.617784896416385 9.382388750510165 11.405272344025065
Li 14.294393923242389 9.3154424240258 6.596015183510034
Li 15.094283958349536 7.678302866703492 9.185755634040968
Li 12.723079809235614 12.071814668033477 7.499676905609847
Li 13.202835613488961 12.016650582961894 10.332360811373338
Li 11.904977181059026 11.764860402847674 12.63190224200817
Li 14.398023621103142 9.572685273340868 11.825935195897246
Li 13.368382174086486 10.566050918345736 14.64141599025068
Li 15.501916649300236 10.729643603888915 9.11749060636356
Li 14.5766406439907 12.641125802180037 12.847483395425616
