38
Energy = -58.55442088 eV
Li 9.77866765148407 9.723296644467029 7.778570038606425
Li 10.627666167215907 12.957415630492074 7.2981075998730445
Li 9.40106047756835 11.989827140036082 9.82757005136427
Li 7.593259285486071 13.05269534140433 11.856225052545275
Li 7.768259737179812 9.747399150419346 10.704940016094428
Li 9.277234786339063 14.999618264069671 9.71677444624961
Li 13.056760541079443 9.461137020732151 11.529281817938788
Li 11.87537685136029 13.817491201894438 9.665869804592475
Li 12.041760217213143 16.01457392450261 8.082651156528925
Li 7.621619934557628 10.607903411132552 13.605079792155053
Li 8.960540745740161 13.226709386247219 14.598968783873287
Li 10.366136296284084 13.790876764509399 12.12396207537465
Li 8.692262989577205 15.87889458909591 12.8130373434965
Li 11.796901914030041 10.930662771939417 9.263950299015622
Li 10.499687837892695 8.608159788940174 10.440859630977897
Li 11.63924254188243 16.237406423598284 11.317096221101579
Li 13.18742674643355 8.344973210103861 8.988547054132992
Li 12.738826438913877 12.189653346948836 11.603074917397947
Li 14.407630312438547 14.781324345450255 10.083626643593893
Li 9.219949411908498 8.082902725042707 13.030341846953158
Li 12.749639613997745 10.541815944624545 6.816029932222716
Li 11.430552684438439 13.049068133570438 16.82091645086082
Li 10.073990535355692 10.858503306928172 12.319885887099119
Li 9.924294693022404 10.50144543377518 15.604601743984022
Li 11.26325987080013 15.227067169187496 14.536124290017822
Li 12.328507605939325 6.82252923445234 12.043500538461043
Li 13.616372693105355 13.402204386302461 7.513936502565665
Li 11.795452784931042 12.238722922140047 14.275561909995409
Li 13.439258761087977 14.451004230383717 12.836410227161755
Li 14.573363472590325 11.462261317954063 9.594289402154475
Li 11.81276024538966 9.182079763322387 13.873404610637792
Li 15.827166912501044 12.759727723631519 12.236029358801337
Li 14.397944512258732 13.263639119397789 15.30712976517366
Li 13.359722804176304 10.506651824069884 16.156510689260063
Li 15.942591119674576 9.686706480936015 11.734262116426104
Li 14.23473802066767 11.00181601131555 13.566783557523353
Li 14.614246187380123 8.28215714852892 14.040706270774658
Li 16.580134681783935 10.794670225283468 14.80179250089506
