35
Energy = -51.78846218 eV
Li 14.799033654559713 8.792189953645336 9.706183686902962
Li 15.802198722223329 11.424667274654704 9.720401275968964
Li 11.071329824432727 12.018038813128785 6.9529921058279545
Li 14.213485493679965 13.36110939910182 8.343712988253653
Li 12.947288678847626 10.79303778183482 8.754752425486691
Li 13.789323846579915 15.436263192891008 10.098112765647214
Li 14.894261679351803 10.156188136105499 12.408568723327347
Li 14.021123521009555 7.1648930025608495 11.805525565276138
Li 15.976667374219618 13.948117521097071 11.229024059771676
Li 8.82590895902993 12.444105302532272 8.67571523699573
Li 12.023250792955722 7.638790843405212 9.269453013620074
Li 10.252350905368097 9.994227516383486 9.019158265224494
Li 13.533015945507277 12.461289495448993 11.180768802086247
Li 11.256091867944834 16.090074613088845 11.329406503018648
Li 11.398124384266174 13.458548600835558 9.547306054642517
Li 6.395488529378049 13.115030677996653 10.067561856836955
Li 7.461984430157007 10.440039641380222 10.451944433105261
Li 9.867047294298805 11.33709594088669 11.665475035727601
Li 8.943481404959952 14.30435026783534 10.96078292949356
Li 12.152920753317556 9.481134903297738 11.362915584682153
Li 11.303494855053277 13.550788048000317 12.59190960139896
Li 11.267054677825886 6.6159546235898015 12.218564722094845
Li 14.11503743793748 10.830884249671326 15.78972503616522
Li 14.990370412912739 12.669724038220508 13.775376585585123
Li 13.161652806229077 8.527694373214082 14.192628682472321
Li 12.313981000868464 11.15635547626794 13.557756026876136
Li 11.43354052142901 15.817465163321943 14.335371673848156
Li 7.750417604808596 9.750835410766923 13.398529510874706
Li 7.340593554894496 12.478577785328094 12.743785304664025
Li 9.27773204368867 8.344261821536778 11.19735383062194
Li 13.86775294898314 15.163690753442559 12.965780471022876
Li 9.67370383573989 11.793218488375999 14.639500354035935
Li 8.911455636930736 14.529393353097896 13.953449978000581
Li 10.384059566987025 8.912671652664844 13.866678455457587
Li 12.208833871025968 13.249404068667696 15.501669905036483
