32
Energy = -45.49909575 eV
Li 9.872031175425912 10.03380477773957 14.906542467164247
Li 7.456560393059753 12.787370069320284 11.003024387002242
Li 6.838699737364974 13.700536915942974 13.690451687538669
Li 7.891070900384345 11.008828767654267 13.12837073772263
Li 10.738561911508146 11.710752329111752 17.013220563108145
Li 9.54648533797514 13.051564850801396 14.48095633873894
Li 12.747731206660253 9.806469210123158 15.945875508768028
Li 10.230801075775183 12.908395464224759 9.938497793782089
Li 11.577975290729334 14.036355931721465 12.505633207626868
Li 10.824762207312013 15.901012537957625 10.335456149178803
Li 8.560120121439295 10.379447608493924 10.211697860234683
Li 11.68482177732818 8.020708208433781 13.917750168376315
Li 9.175563346537878 8.527392384266475 12.474712209231996
Li 10.77315940054597 11.119594765048106 12.16759626400564
Li 8.94374829630847 14.915003489425969 12.108320372948427
Li 9.521418135747032 7.733195230606192 9.662229395124232
Li 13.581518751540541 15.573968804128834 11.12941304463572
Li 13.261102849954032 12.543887042810574 10.594554172793313
Li 11.9059062209442 8.294110533399305 11.119192551196093
Li 12.265169832504354 12.273351665672026 14.569792611898015
Li 14.26091427896068 13.989862404041954 13.417500107787253
Li 15.086491874285025 11.460300361122213 14.693640879412596
Li 16.003244463852813 14.025559226808435 11.128889829881414
Li 12.026160284311029 14.357646748219121 8.256035331980021
Li 16.991986577554737 13.281655870148729 13.703867951887029
Li 11.200808151590982 10.254839555222595 9.084619283489213
Li 14.772022453008013 14.421195251127019 8.566083327434947
Li 14.03718288620427 9.738414232129124 9.932951054050088
Li 13.433090600562513 10.096750376409128 12.803807639701118
Li 15.840649958678792 11.24409898781722 11.851210083037778
Li 13.099303527541785 11.758041146991387 7.671677763126164
Li 15.658263134931916 11.762154547396735 9.027957916894833
