30
Energy = -44.88328503 eV
Li 14.017775048857041 13.819699406724162 8.89374209081996
Li 16.39923737961066 11.53237201951489 9.478780304945845
Li 11.235844868791713 15.728111157774615 9.634507940763
Li 15.829157019900734 13.751087597976673 11.560851403728964
Li 11.305424751921361 12.711711103618052 9.595439087510917
Li 8.588875546173764 14.201879244883813 9.379920460396226
Li 11.7807177533789 9.715188057258432 10.445965407348666
Li 16.300378056144854 10.833066399237232 12.498901951076403
Li 9.024468318866193 11.486744596715505 11.127567617057416
Li 11.459505922090814 16.704793233376808 12.68223721010481
Li 11.551728488627921 11.86788578621957 12.372750420297244
Li 13.997614469921732 11.68968167751333 10.835366678141279
Li 14.929400599982806 8.872609397644416 10.588200536567742
Li 12.90116145321385 14.365353458621467 11.587472201989241
Li 9.938311326783927 14.331354493324435 11.848573657069064
Li 8.643554062908818 16.679919114072934 11.245738299860928
Li 13.556826998089006 9.750484419372969 12.962462102996549
Li 10.569657386874695 9.381370698652825 13.182328918755108
Li 7.222820062489048 14.063712737442216 12.150375256062352
Li 14.215295783461402 15.51903355646577 13.95823755884054
Li 11.671433576074989 14.176486776516956 14.349833665663857
Li 12.847351437389598 7.1915633593918 12.197162778873615
Li 14.135176053717775 12.588037826475835 13.687133023585975
Li 9.27067639849469 12.407008845192776 14.001675494188254
Li 15.588071297091284 7.897655899757287 13.503029548824342
Li 12.993342552581769 8.16688616411904 15.103127584230053
Li 15.093048606177893 10.453476459188446 15.411116912289692
Li 12.092297032389855 11.200920430023977 15.204881128400888
Li 8.97099451133042 15.634713724834947 14.174860245029704
Li 13.919342702365908 13.326681823792631 16.387249980285297
