35
Energy = -51.9361041 eV
Li 13.103812387445902 12.53656282300403 7.994361181376549
Li 13.911318328213174 14.981360442271562 6.522458677879611
Li 12.339440539819266 9.636371929287336 8.726854094751593
Li 10.444624084802378 12.030447083599437 9.31404356494469
Li 11.095025310454874 14.725423840053596 7.99246991983042
Li 11.561943088292805 6.761132273270934 9.607681290382596
Li 9.612928805302747 9.146995367648687 10.064320368985138
Li 15.799849970502923 13.280569751991504 8.30336046813322
Li 7.734206817324148 11.539589013195007 10.55701261829047
Li 8.27266932907719 14.195838141944124 9.339801692493431
Li 14.918369368247143 10.633719509018716 9.75230749548567
Li 13.864744097002403 7.9213398195150235 10.923906295088695
Li 5.4499448453137 13.438954300953425 10.591693613633367
Li 12.982974371185444 12.350877072233986 10.923361928180194
Li 13.644968726301842 14.852868941672556 9.526187429449799
Li 13.021247760072367 5.395120835688377 12.136147311258133
Li 11.949942730904459 9.814086595016084 11.519971875895424
Li 10.098038712078237 11.788090514026347 12.290427254224406
Li 7.926079774018626 13.778387337043926 12.267103169312747
Li 8.56098799284364 9.450921642212457 12.799817372905755
Li 12.54548234088943 12.439543728697835 13.85310509458902
Li 15.56582499293625 13.22077131042824 11.351712332771632
Li 11.146556612282934 9.891531942512222 14.405100508453536
Li 10.83372552434245 14.307164536577938 11.009633800734951
Li 10.896254221739422 7.396675275044944 12.352288536370228
Li 6.184687684921687 11.512006208390153 12.912729921140764
Li 14.552899462409481 10.528897256330508 12.78991710609543
Li 13.403822787106566 8.02714206054193 13.900214232415324
Li 10.485092441388666 14.359283338051785 14.09213926153643
Li 13.360224302909206 14.900557741685724 12.719845874462417
Li 8.669931829802636 11.933945529616949 14.65242879851577
Li 13.099986040567176 14.491015145314359 15.829596121621819
Li 15.25698666340077 13.095955719937653 14.356086513930865
Li 11.147573619412073 12.31868957432265 16.319565059105273
Li 13.798390135028368 10.843301333342154 15.835283817655668
