32
Energy = -48.54103641 eV
Li 13.814156062132332 7.489067980796524 10.446855612086955
Li 10.612286762142226 8.491459531711502 11.012596871608846
Li 15.701507668796161 9.700863365275 11.510649945276368
Li 9.767784207333033 9.684693350681014 8.152238080977941
Li 13.210690467748847 8.676766453483909 13.188939655113103
Li 15.818932735857143 9.883552813177927 14.60906699414175
Li 12.412324357020099 8.833534401442481 8.270095082301431
Li 7.5871182591482365 9.825238025426886 10.067455271198964
Li 11.334547668119331 10.821142806846611 13.045494911836457
Li 12.8413119681467 10.652945928008895 15.567042576055623
Li 12.980841367502805 10.193405387701938 10.63351145242488
Li 8.52175829050003 10.461183785897193 12.875229822039197
Li 9.996693844434319 11.298157736420535 10.425923562312084
Li 14.20629998097564 11.520383573561972 13.125239262849643
Li 8.749538390237234 12.43714597587644 8.092411132207573
Li 9.784106697055845 11.83609650478832 15.352256432259821
Li 12.26000600788775 12.983055147269805 11.411887333953043
Li 16.86651798456898 12.31553959479313 12.744632436845597
Li 12.113531460920225 12.033783148803504 8.488966944398381
Li 15.001732495265905 10.154831970292204 8.553506432133464
Li 9.655195278153288 13.25027727906587 12.794147804782204
Li 7.553107839851364 12.79245753366912 10.915940195099536
Li 13.145853555838709 15.008673570798823 9.755393896417901
Li 7.192588198398791 13.167177980343817 13.968899564472473
Li 14.887873750921322 12.500730949347465 10.380013890777398
Li 15.16946755587604 12.842629219732371 15.317244680728201
Li 12.199736207473878 13.37791100404158 14.420687987920974
Li 10.121494657989613 14.28766608671008 10.015430189821492
Li 9.53264137217361 14.991829942807808 14.90638890066105
Li 14.463503595016054 14.450942703992743 12.673195087414674
Li 11.445958913418558 15.598577324804225 12.44474215971762
Li 8.258728248353384 15.58973621805631 12.11559289730056
