37
Energy = -57.33188003 eV
Li 15.686762629268104 13.084609592261168 11.915696428339606
Li 13.673506220262702 11.188488564968218 13.161264974593665
Li 15.40796405091482 9.932606907566928 10.984948302056413
Li 14.223340836297155 13.320417962980423 15.021319257683878
Li 13.013526115887355 10.06264418528982 15.798793091195735
Li 13.803412653519402 8.125043413833902 13.330699763853032
Li 15.79427272480834 12.352158376597247 8.827224650874859
Li 11.353396992001041 7.285310031942571 15.250405820308726
Li 14.079302895194749 14.841945744589674 9.807877841450075
Li 12.891335778177565 14.042928415868072 12.448275410998773
Li 13.887426584087299 7.117961248012815 10.298974351058524
Li 13.561067951030447 12.097295794960568 10.322791306999182
Li 11.85924807419602 15.535224858154255 14.49087478403893
Li 11.20323163275379 9.48708406609932 13.672816627348684
Li 11.393016516855925 12.428948552083542 14.653374784603395
Li 11.231516993975653 7.017714812977604 12.05446420457689
Li 12.556306130067933 9.364491895618686 11.061414449548352
Li 9.87355691067495 9.905425075435275 15.975363489662032
Li 11.057340167941614 11.011169818532407 9.079560434786934
Li 13.655959012930165 9.858782776901462 8.397815290222667
Li 12.823519223932129 12.767814473820547 7.570784621495111
Li 11.429775865231212 16.393851506562964 11.347529257122295
Li 8.666370441992113 8.192823737011416 13.646413061923337
Li 11.103830387495885 8.093079045588706 8.860274619938096
Li 11.212595070620019 13.891622359242238 9.917978472957387
Li 9.775394553240288 14.199790502647941 12.529253570259465
Li 8.71381750794496 12.233908712124357 10.371727036804673
Li 11.120991675446426 11.71219849270133 11.856858718070832
Li 8.695908149939415 11.277669263631342 13.318681322751619
Li 9.540334671126876 9.380574580248872 11.104519647728704
Li 10.979974816456378 10.312632898541258 6.446400710245942
Li 9.476554626191195 12.889149265340393 7.592815534411589
Li 8.49565607826791 15.033553911729202 9.838222044064054
Li 6.750027195715199 10.298645957681085 11.103353587736276
Li 6.733660176863166 13.346669682310974 11.83354360298807
Li 8.43546500545997 10.08878870128904 8.350996094671723
Li 6.5092936034369355 12.612703241912724 8.829407262711179
