37
Energy = -55.94470787 eV
Li 8.191461128909896 11.35731373002758 10.691135254255787
Li 8.754730181578594 11.30933694303595 13.649708546765426
Li 9.405194997418137 9.37250451724406 8.701709175181053
Li 10.159340567118745 9.407553557366024 11.792463114822183
Li 8.37593368906267 12.787484726126172 16.27646150912552
Li 8.876529647200469 12.299890762436247 7.850456861441762
Li 10.012734703587546 9.987777375823384 16.014294580939517
Li 8.99688436575871 14.357570956281318 13.573885433230695
Li 8.95289331783208 14.112591097230084 10.33789318618879
Li 12.454273984443144 7.684657241869568 12.477320272490772
Li 12.198976847496311 8.704590806790844 9.689685617038284
Li 11.870551616407472 10.416696339799701 13.916611703176464
Li 10.70565957320602 12.559602278125501 12.181444819871864
Li 11.045593209068047 12.541099558459956 17.87280900358299
Li 11.007184967012957 11.481865471958471 9.737621398735325
Li 11.610031294030243 11.084185956697462 7.101877267891455
Li 10.960458107207362 12.7923874543487 15.20277955296682
Li 10.22164243798388 15.205686206774985 16.59138980244918
Li 13.043731966888174 13.343389220843708 13.272726400890061
Li 12.900796494657241 10.569258070313406 16.552191816703118
Li 11.471347767948727 13.97309248462887 8.4377008976426
Li 11.445761765210142 15.251358045349985 11.265270139746669
Li 11.656254694022532 15.620081976275346 14.087054371595839
Li 14.401230876636157 8.793400777045939 14.272205322923737
Li 13.646410867284974 13.488739117933122 10.490645058446754
Li 13.72615266473098 10.657990491286782 11.85386352861457
Li 13.449436332249107 14.140999070907412 15.985616227639225
Li 13.858409959539609 10.882775300697892 8.955241379061764
Li 15.10681118039174 8.505220805734577 10.888850600263442
Li 14.664753108014047 11.67309886798776 14.71333296925882
Li 13.527626116923154 16.220304643058185 9.338400281605976
Li 14.268618292623508 15.830460185900076 12.45904747508495
Li 14.399211416718003 13.566974756854979 7.843539673393782
Li 16.61191384237497 10.268041936561987 12.867653269889649
Li 16.181649780644744 11.742657924490532 10.318169862308423
Li 15.930244884959587 13.37716618851395 12.778573833083138
Li 16.121326647881233 14.845435283159846 10.120493694371763
