38
Energy = -58.1385724 eV
Li 11.343933669728921 9.691089058424458 16.4255618910664
Li 13.098043336853365 12.106804186099877 15.307996046181728
Li 13.017397577849206 9.216238477557166 13.966515927542858
Li 11.592962463899577 14.618453001395268 14.09156250844062
Li 9.983237480637328 12.417464876839395 15.61390138331308
Li 10.336099167699107 7.564680447044302 14.455529217238718
Li 8.351234340349022 9.663811214594002 15.608481354066619
Li 14.37759629485809 14.24995261137044 13.010263828272173
Li 12.454535707683121 12.013297767316576 12.664538955353295
Li 10.352049971501561 10.37433853270391 13.830573288426198
Li 9.624975884964655 13.175105619299604 12.604375549500546
Li 12.848582924006209 16.749351340844925 12.015819347436812
Li 12.962499647174994 6.435808528508126 13.172407504067234
Li 15.272090619879473 11.146908027785559 13.193083400803806
Li 8.41680877223162 14.812425061427797 14.550298595126597
Li 12.061599371258747 14.273022343410894 10.945695669024097
Li 9.837567802956565 16.002857723186725 12.027783059406824
Li 7.5197995494773435 11.852041436030985 13.67901828562057
Li 8.392172116184435 9.065713779072198 12.348845351064444
Li 7.2455309911365635 14.375518404886064 11.709653093020052
Li 11.261416140188144 8.24383125230406 11.743398887930498
Li 14.605245103657115 12.563909430840667 10.668812326564396
Li 15.380472885025384 8.141492323219076 12.258242567913545
Li 13.516206699353512 9.802717681461342 11.06724094771261
Li 7.782077371100103 11.570505418420971 10.595232147748911
Li 10.468163685362885 10.942906991992446 10.950226394865547
Li 16.259447726109617 10.257025346725188 10.189758340229353
Li 11.242266041997905 16.501377646770248 9.373538407263993
Li 13.56401794628081 7.156493497341228 10.08392617511115
Li 12.38398104439058 11.768091873257251 9.145651882856368
Li 9.583898560569382 13.897438720546136 9.717061450213736
Li 14.194553130703424 15.288482444832814 9.569437064396055
Li 11.224928725498545 9.018938136401012 8.829309561372623
Li 14.127323647182415 9.576457046164167 8.293680083030678
Li 14.799678257813492 12.51397656814642 7.8006815643952905
Li 9.695147387771705 11.528188127066237 8.015920753856065
Li 11.978347433790244 14.018090582290569 7.690209540682507
Li 12.300278752250868 11.075483777740013 6.41541969234097
