32
Energy = -46.7975419 eV
Li 6.941859836872797 10.522705749077234 13.014380324629881
Li 8.898589870452557 6.808668007565222 9.393203823831564
Li 7.380447015919421 9.169489793926482 8.65827519308626
Li 7.466451025229014 8.092686807223327 11.593595606860186
Li 7.106336436187811 13.309522153144965 12.877360077007515
Li 7.323189144983708 11.442822149783721 10.256780875368923
Li 8.665467731308343 11.708699053007871 15.041087696387317
Li 11.685809762312353 7.412310311280866 9.876047792887439
Li 9.669508839656261 9.51564121096111 10.581874920167705
Li 9.954247104929356 9.585789900614701 7.609226673315809
Li 10.110084731727705 6.9359457773624165 12.293965720372686
Li 11.401253514858272 11.437054392179165 14.414934274688337
Li 8.213301505576757 14.1787009801984 10.40810900190961
Li 9.589821089983735 11.961257405536882 12.108264506487192
Li 9.519620202043358 9.329702845397795 13.618970387928158
Li 9.769741681510789 14.306577448371248 13.946633229119977
Li 12.116383823557486 9.062320770442614 12.329683818837578
Li 12.55800800345233 12.084728433998565 11.737514474090249
Li 10.879283229928326 14.464190473289577 11.112225886238086
Li 9.834721071148955 12.214702522691743 9.021327748477097
Li 12.176061260426827 10.33359571682658 9.48202255316607
Li 11.656641683290676 11.80924414433956 6.776799517929336
Li 14.289900685343655 8.205976540738876 9.172310208251504
Li 13.98169507182482 10.51309053954526 14.014772043846525
Li 12.637433276634264 8.817728607752615 6.866237762808064
Li 12.712433788552826 14.139284744228487 13.894151693897847
Li 14.63779396258299 10.01610447698839 11.253478558779022
Li 13.669840765269438 14.886734640713014 11.116173577156284
Li 12.526919888101576 13.316884427791392 8.965303588423156
Li 14.319836327311188 11.013743219879728 7.798594094894873
Li 15.199357213001122 12.773347293768815 12.797330398982599
Li 15.144284073285478 12.615497129936408 10.007135692323363
