39
Energy = -60.0544394 eV
Li 8.947486256160243 13.205067101573363 7.588002286109297
Li 10.614295069737368 10.732983667474985 6.222192901382041
Li 8.108856545653943 10.056808317166361 7.861227244821892
Li 12.07613143023927 13.263235043841407 7.55298598297915
Li 7.484329332810926 11.80109330543831 10.14997637914949
Li 8.178653651165856 8.707284170167735 10.67501805280293
Li 9.872686175826225 13.520973833785764 10.402311495045224
Li 10.360521566739264 11.284019561801996 8.92202321204542
Li 12.858957225495974 12.604951801475742 10.181014875655743
Li 10.598526404043835 8.501124878075677 8.733084769210283
Li 13.036833492887359 10.300533706591079 8.071539954159315
Li 11.732858186878344 15.41362168295017 9.739111604187265
Li 6.899641254918104 10.589124908788694 12.968247976348824
Li 9.565730987432847 10.75382085570811 11.771651210691052
Li 9.106926285524988 8.572020988708633 14.0151593877803
Li 8.179386988468977 13.450118015970693 12.802425817587572
Li 13.462074288169978 7.6071706785788775 9.670605282419462
Li 10.600863271539941 15.609836588453557 12.545690103161588
Li 11.217003504249636 12.852368070626596 12.826685181763542
Li 15.804123792097363 12.929395060690645 11.423828253892957
Li 15.080259539999531 10.159905945077897 10.38370471739213
Li 11.032656065738067 7.619925498773567 11.787447033568622
Li 13.42166619145899 14.50089153218031 12.12319612279037
Li 12.154049644947742 9.932559069780105 10.799093148108055
Li 14.645227846843218 15.133093317378753 9.648233991276419
Li 11.576209912371095 9.874032775259982 13.729126395419824
Li 12.081894644698867 7.389824426522453 14.79139271049994
Li 13.216830958472496 17.217982536651927 11.79069847767516
Li 9.226905795347541 11.496350016236674 14.682060485575537
Li 12.934444478076387 15.483566979828293 14.590716619475534
Li 9.96752704224323 14.353823119197356 15.216244512960655
Li 16.37848513615537 10.403998996304935 13.238461614497409
Li 13.777905915289624 11.429643558242477 12.74475347338352
Li 14.002951171035322 8.424471446858021 12.583074753947251
Li 15.745224348454787 15.82547237396147 12.77915358805599
Li 10.919309537715264 9.746167520726207 16.415089799772794
Li 15.12240588914109 13.176151463722931 14.365817932090685
Li 12.255464251761374 12.416129358427007 15.29121967156409
Li 14.01233414134974 9.94510795146518 15.251295050701936
