31
Energy = -47.02042864 eV
Li 12.293228832158503 11.002340100119326 15.170236910703695
Li 9.954145797415904 9.148935181031563 14.014501085505701
Li 13.110756370551409 12.880887856217974 12.978370768308034
Li 11.458583978270797 14.021523838365281 15.203917436398555
Li 9.329926839504692 11.694109003483716 16.01405158835255
Li 7.523449467733721 10.893459840909847 13.390697382311728
Li 8.483110586963628 14.063811191801074 14.218708741764022
Li 14.895231839089902 10.55257288483555 13.174958045377663
Li 13.73781996806356 15.604982886768454 13.275292347784392
Li 13.889755060283177 8.403006166274286 10.724138720272334
Li 10.909482753494967 7.609071088187199 11.324088595390974
Li 7.81582645034984 7.937785311193766 11.929024671416894
Li 10.90556748487408 14.743512225847514 12.300936480761711
Li 12.155008428037881 10.173612890749238 12.314896124599965
Li 10.22950205028173 12.063823490650122 13.488878001817932
Li 10.310347139851045 14.439605554600663 9.20203681242809
Li 9.377124954593075 10.081719375067783 11.308800799565901
Li 8.444426577977046 12.949795131542388 11.230236968714596
Li 15.719562400288362 13.455085951031005 11.845344480631221
Li 11.679324105329354 9.716481557321908 9.413114719861271
Li 12.107694329942715 7.254999462923012 8.33848935878649
Li 15.54833921967858 12.788258939642226 8.578006446752278
Li 6.8917951759992295 10.287863496551987 10.151209362954509
Li 14.02651334461928 9.795343645725858 7.857669282987554
Li 13.330618433171818 14.319152450710073 10.407017500888001
Li 11.152005664154068 12.304999637819876 10.7249542077584
Li 9.368418825323818 11.462263527939825 8.62272645567122
Li 14.004267760535877 11.418433135435397 10.487199766394177
Li 9.111857077155516 8.371819835649374 8.917380719406902
Li 12.398805229437139 12.29354821539702 8.145283687452025
Li 11.083116986712849 9.71586176167185 6.702998917539857
