37
Energy = -57.06028226 eV
Li 15.892425102159134 11.445161328883746 11.49879106358623
Li 15.993742035845106 14.751274864671876 11.704922478106988
Li 14.979713948945879 12.788968523607263 14.166216652111432
Li 15.546235450637608 9.5455417104414 14.123077538055398
Li 14.802448725028597 13.337383149701163 9.033550553779923
Li 13.387674834231918 15.560551194473943 13.490155058181118
Li 12.63030492734082 8.097013045717945 13.770257153913624
Li 12.909660732211767 10.667874631179002 15.62818244443641
Li 13.653557419187697 13.380267254402293 11.666495484283862
Li 13.282758094376355 15.774672053881545 10.200973503502022
Li 14.419903931868756 8.467816595924413 11.254599323352199
Li 13.37989643911319 10.91020017775083 9.901420228946492
Li 11.928228270384231 13.07402598618894 14.100025808075044
Li 12.548585573294204 14.727148688855655 7.158493201717454
Li 12.650491604986726 11.54632426448012 7.163942502124
Li 13.450795161482231 10.721797591522618 12.83283095591536
Li 11.900430203962674 6.398462502909179 11.085792380688702
Li 12.4607523761351 8.362868935232784 8.636032541238125
Li 10.246555644095775 15.187279574578108 14.893010948019551
Li 9.79085906938308 13.018498457473795 7.274127095139533
Li 10.645279821295532 10.388312555471893 13.72930658744768
Li 11.197305352621148 11.924473355896907 11.543495341777254
Li 10.244533281551552 15.641454624837808 9.029476382231836
Li 10.198463100239405 8.852515229757232 15.848298575162614
Li 11.781302501286254 13.352176089308788 9.30772272970563
Li 10.437121262677945 10.658386881425248 8.93732426827042
Li 9.873908867166504 12.07745747553766 15.947606449422349
Li 9.429774426834518 7.965022743423241 9.649687493053882
Li 11.52328320132355 9.087547447710676 11.211671193476715
Li 10.885510410006896 14.774741147037256 11.919211134348242
Li 9.589557284325501 7.798533495684174 12.879343030099713
Li 8.889179021358816 12.924570471631757 13.255910958119216
Li 6.395375857084543 11.93903743600777 11.722249026225262
Li 7.479278483641826 10.72617842330664 8.837075128050557
Li 7.812576494539652 10.292071021628507 14.215475634504179
Li 8.82743735101855 13.05593613001046 10.198892733233778
Li 8.7552059528947 10.378428989948873 11.407025870815902
