32
Energy = -48.65179871 eV
Li 6.955280664323928 9.605991639241093 10.7555218319501
Li 8.18247676305896 8.439372397368137 13.319456641065019
Li 12.53652276468372 6.619847953683445 10.755918455019858
Li 9.448021474605678 10.256620898825657 11.692001920614777
Li 9.454148641832743 7.634616732838211 10.537026017304115
Li 14.168531097519926 8.570056536748531 8.86370028494806
Li 13.439113206127663 6.608816330839326 13.885185208274574
Li 11.282300536591167 8.268118417800633 12.946443742735802
Li 9.32149704356638 10.196676484509597 8.73519747898594
Li 10.14340754829613 10.672086974147074 14.525252212525894
Li 7.386676777566129 11.63416127307973 13.173139597417965
Li 11.326047656603444 7.7199421971101465 8.001413292941779
Li 11.827021305892705 9.317915491373785 10.120999154437397
Li 14.070927031260496 8.886967728099233 12.001354795464561
Li 10.98355042447654 12.18979988492186 10.014570179955435
Li 12.169160355243259 10.901710794165767 7.668108653538953
Li 8.124746669649957 12.693286691451847 10.420723238598221
Li 9.983952927576134 13.103386432572778 12.68718732236368
Li 13.18475715876264 9.749163026573694 14.720299402054936
Li 7.932530005780461 14.97917564475916 12.629309274786015
Li 9.80521556494569 13.3101206031832 7.812571400072352
Li 12.133525296302135 11.118362091050898 12.44710092378846
Li 12.733870567185228 13.906760404377115 11.670255133179964
Li 13.931063910252215 11.479687595883338 10.107784978122922
Li 14.78604938273867 12.193258418793995 12.94600244786163
Li 10.169869876738549 15.004133318257038 10.40903466178696
Li 12.332973770839716 13.064417136474793 14.520338193608719
Li 11.109958751951744 15.726425911746373 13.208703270270098
Li 12.690291414541571 14.047174875717285 8.755589256958592
Li 15.225808605609542 14.337145028831142 10.571283161127765
Li 12.972338617617758 16.48932637395351 10.7299661410584
Li 14.284184853425728 15.355678912099537 13.335177260131799
