32
Energy = -49.06198659 eV
Li 12.010851495032172 11.396282033045091 7.0090084858436175
Li 11.143229480680043 14.507374764343588 7.272353558419544
Li 9.394844781641773 12.185229389871202 8.50598435022703
Li 14.158664654569538 13.732991500556388 7.686450509739195
Li 9.70651005323387 9.162444608415107 7.5682326643029
Li 12.719024304073567 8.36899292825855 7.976584160183288
Li 12.801225019160311 15.79901004998197 9.575030587122697
Li 9.864711856972184 14.813740137719659 10.208944361917396
Li 12.135281105645033 13.132431764454228 9.411029256090625
Li 14.209140459356625 10.918282401382823 9.143327072057483
Li 7.494481547318249 12.816776472418287 11.006112024967795
Li 14.672329230066692 13.564546101984082 10.845726247211296
Li 12.905834533864285 11.430680280509675 11.716945011439556
Li 8.5118184439151 9.846989366392235 10.440810682490804
Li 11.358894528462892 10.192527049534391 9.507482041125035
Li 10.120181393506329 12.170669984151457 11.362689581695427
Li 9.249288303078256 13.992147447302218 13.44365318291918
Li 12.080774158225658 14.335958488848187 12.309631193079221
Li 10.523333914830063 7.487502842432335 10.23932897327722
Li 10.768279057638445 9.45619023460554 12.384534819809312
Li 8.427654482903085 10.9393607026553 13.427194919167347
Li 15.508499464060641 10.68867703134379 12.043631967115124
Li 13.324126080620571 8.557176828505051 11.072921519987071
Li 8.624606955423944 7.8202766572166516 12.880560040032755
Li 11.22173330827676 11.916661060667264 14.11869694639044
Li 9.43345528712559 12.239751584879354 16.140460458934438
Li 14.053850882429984 12.715513575701783 14.045181614822589
Li 11.691424078999399 14.266651785070714 15.471095748260254
Li 11.623342440539695 6.997306757872306 13.262087718174996
Li 10.375598111640006 9.289292482631712 15.193266332374197
Li 13.236145327490208 9.641419533919917 14.026004711287259
Li 12.441529709647671 11.429025955212017 16.503445510287285
