34
Energy = -51.45956579 eV
Li 6.963856163810412 12.738916814523183 11.065635806869642
Li 7.332447299125842 13.578125717113707 14.203341143652015
Li 9.118087542557427 15.128693985101778 12.21582890691737
Li 6.6667374255108225 10.650841027692989 13.570521155995243
Li 10.363521786874841 11.188751873919474 10.450335194617036
Li 9.475718758243184 13.714941445989545 9.55921268526051
Li 7.498090740999426 9.749808355441163 10.92768478232606
Li 10.463048052746814 13.742310802858245 14.647585378970524
Li 10.728275138845603 11.90295018628842 7.39162239494997
Li 9.27107257808013 10.888173352202083 15.36445119737847
Li 8.983199409647401 12.08230979027909 12.697494518365387
Li 12.121831631152965 15.978926011085349 13.24591865749737
Li 8.234667869744358 10.981520710651493 8.44681734848762
Li 9.979330181362482 8.542695677925769 9.597354079510858
Li 11.488226983553961 13.670956383585176 11.875831329113723
Li 11.58295263558996 15.976066589318068 10.241051185838264
Li 9.368210503843184 9.15364003617555 12.909934687563618
Li 11.461585972935161 9.009170500530384 6.917373327817282
Li 13.50329518837442 13.197277456377094 14.005763733758975
Li 10.63051336385508 6.56381523036545 11.994823600332104
Li 12.083842943581658 8.967405885919646 11.734791848147768
Li 12.691216028474935 7.250546058933978 9.525502051337046
Li 12.669084910213574 10.289389959262442 9.010920550779783
Li 14.220857312248588 14.496916677844302 11.306467951711387
Li 11.510187352510208 11.127034420817965 13.56452519693287
Li 11.642758089434162 8.30997767864405 14.563783000265362
Li 13.51070261504401 11.57597755250803 6.59492679871968
Li 14.538976735097407 8.91506749850308 7.646677186923545
Li 13.410482278497003 11.615570970212548 11.447391190742499
Li 12.574733604487331 13.298823183858588 9.093693162368695
Li 14.854303139634663 9.087969786326292 10.735640259980848
Li 13.673130971948588 6.870817613662997 12.556934487620488
Li 14.2012558623671 9.860073082496594 13.645999298798245
Li 15.218831254377552 11.828626557207027 9.251588273485106
