35
Energy = -54.04164632 eV
Li 11.513371593793906 12.613432709125766 6.584669863445164
Li 13.062159642205392 9.896657993117651 6.634438381618151
Li 14.323432188089836 12.538844602510256 7.987192686533118
Li 14.707895053815019 15.05532763399588 10.775314328454739
Li 12.041584129595662 14.143638242173564 9.375341490806777
Li 11.824427866152279 8.15359191998246 9.06292144842534
Li 12.196060160818563 16.837606784711568 11.221262027818543
Li 14.454551889589204 9.673070901879246 9.443717471729354
Li 9.29378292822979 12.501269769561407 8.964361941544515
Li 13.852426678935847 12.272970287343798 10.911866576182357
Li 12.00147647347576 11.12917958135211 8.815686816555887
Li 9.859085979317994 10.004021597000845 7.300614110771572
Li 9.689184037031124 14.784824605688868 11.364500221062006
Li 13.657713124649993 7.350563230606336 11.527677998783425
Li 10.927468294168007 12.260886350210207 11.34253223050501
Li 12.465886302445943 14.446116661595346 12.479782248138873
Li 14.061127422739059 16.31613784344643 13.662129223817999
Li 12.651419006471285 11.70661906455514 13.616206669046315
Li 10.946336484846771 16.186178887369337 13.968123261442006
Li 12.66485535331405 13.92630015880833 15.39313425347453
Li 7.150089682391609 10.228661371306702 9.237340101279113
Li 12.35562383961212 9.74059444736382 11.4237053007651
Li 14.927517329802306 10.151026981774573 12.755199839379433
Li 10.578311251051064 7.558932016674527 12.112934568977037
Li 9.65543938737612 9.87271430123055 10.28667493498255
Li 15.035067900609953 13.320468934524909 13.50039658204022
Li 14.270574575745808 11.219567706415132 15.75151628855427
Li 8.066318089051304 11.915135451064298 11.765953206685587
Li 10.002176246584781 13.169287861450439 13.933348481921206
Li 7.709427066965085 8.935000809462899 12.404184952599993
Li 12.491973068906734 8.794335970399777 14.245383609872317
Li 10.075284801923216 10.199712230053501 13.29035723499573
Li 11.023154523488031 10.960812919039599 15.914341867496521
Li 7.983573431584609 10.910704774600985 14.879099490564933
Li 9.499713244655945 8.193597780211022 15.06223504580611
