30
Energy = -45.24420257 eV
Li 11.49862246879217 10.652025134730572 9.9172398252109
Li 9.515673101266412 8.931836242227066 8.580020937388701
Li 10.630084665036794 11.709127132049609 7.423509398480634
Li 14.11602593726987 9.710125264290992 10.553288004283578
Li 13.606315522803882 12.223972553563549 8.67775744446057
Li 7.507867872974461 11.091207719299833 7.290703630214858
Li 12.638259969112774 9.272047079752152 7.83856865225772
Li 11.620134439513409 7.670062093927599 10.444754803512978
Li 8.656935690352638 6.675029199509084 10.607762696163578
Li 8.74592532116442 11.690297304166462 9.685659683339358
Li 13.141908487332783 12.401221715663342 11.606022133046455
Li 15.798605003780382 12.404135699650798 10.950294076030822
Li 8.501816230590155 13.971191065205941 8.030145956062812
Li 11.116992197000503 13.699971804567223 9.70756969952097
Li 13.92439741292223 14.839174832454257 10.44571823314366
Li 6.202319436746873 12.575396830939313 9.621562961816188
Li 6.858071034669301 9.410449689400965 9.91076653855033
Li 13.712193671482956 7.508779570931568 12.814138911291517
Li 9.309688771867643 9.275195785182785 11.468673210745296
Li 8.528070097870645 14.181710886482136 11.15836692763626
Li 12.017798617060425 9.725029671562233 12.642974970102992
Li 10.601433439185618 7.240602915789547 13.252038869798044
Li 11.599255404143678 14.665263161878254 12.520760604774233
Li 14.615442246920674 13.908086476576077 13.339578901825762
Li 14.677309001502005 10.609587881767924 13.4218102546661
Li 7.429761982884775 11.406279134518423 12.30156279737538
Li 10.26421937191943 12.032568546922702 12.158176649795543
Li 12.461817549369364 8.936340424400715 15.201128807211653
Li 9.668426157404374 10.032990375568758 14.311165246017692
Li 12.168973278304023 12.076370915886416 14.407529663479961
