32
Energy = -48.46122926 eV
Li 15.934459507094571 16.62419970382327 10.89367243432806
Li 13.218336425813554 17.49342614509394 12.844382987800085
Li 13.260315324098015 17.401502161839694 15.982191929823204
Li 12.319112106505793 12.606523255532688 12.995784240411512
Li 13.041831047741358 16.9419948045408 9.96490047552489
Li 13.004624216280106 12.796534422287403 18.58608769084205
Li 12.994966833472834 14.497484081015235 8.429639853797603
Li 12.352983580285343 12.659652472098298 10.268153515109645
Li 14.30666921077207 11.036585750001533 8.810731007912892
Li 10.528605024718273 16.892453083892843 14.50886635869745
Li 12.366539029665695 10.06628402803549 11.511241226959777
Li 11.124594091245715 15.13932528973779 11.671012911742578
Li 12.677625052524453 15.181522055029738 14.39170095220245
Li 10.778675755246503 10.696476268168682 14.495500125524797
Li 14.829795134484385 11.794899760790821 11.499105234556831
Li 14.886085318644065 13.21844461242161 14.09759326001461
Li 17.295304225588318 13.800342731088014 15.360715336731309
Li 16.945637974635922 13.872315469945605 12.115300553351835
Li 13.986759287607624 14.831541514056907 11.561754021108365
Li 10.167174055070994 12.15204316210643 17.218000846110677
Li 15.28777445760029 11.724120063418704 16.609015662136418
Li 16.880220824048905 11.20909245011835 13.560132074387633
Li 15.581399222414836 16.049620544812257 13.946533603899507
Li 11.424095658917834 15.07975540936794 16.951774380978065
Li 13.87817475515076 10.420811415556855 14.25001748205605
Li 15.604432143718855 13.697893501620486 9.490610732641898
Li 12.541066361636739 12.577235073722008 15.918751354330022
Li 14.556373819159656 14.682396226086558 16.65135882023046
Li 17.279443572950168 11.243064496616984 10.303925084085995
Li 10.088005814193703 13.737835482794353 14.520285409492008
Li 12.540096462745518 10.122872390522533 17.082462337938104
Li 9.83237563062589 12.118129883414701 11.798742269347331
