45
Energy = -68.99400249 eV
Li 16.908663920326294 11.622418652126406 10.494815607706492
Li 16.783897166755914 14.669929543373648 11.321427231042827
Li 16.522206247161645 14.12462452595451 8.344531507558845
Li 15.507271100636352 12.435873154634036 13.198758430556248
Li 14.098753595291411 10.595601328712688 11.71264606415321
Li 15.067734259122357 11.75557075950365 7.290965362135668
Li 14.962990982516004 9.067478958809028 14.048664443473681
Li 14.024728530136045 7.655998409568064 11.333015130942941
Li 14.969575433587352 9.64414438598858 9.288027519013358
Li 14.60951923560426 13.107925679878472 10.096944443107937
Li 14.514285585678603 16.048912292704692 9.508759288775536
Li 14.010306099740683 14.97190656409209 12.241206766004485
Li 12.834135204704559 11.065554277809643 14.640316039292008
Li 13.467794880061678 13.882724344765467 15.002489594128685
Li 13.397186023133589 14.251892007226973 7.554864014005957
Li 13.02567994101791 6.307135124511781 14.057853053352382
Li 12.308562070196459 12.581918734976522 12.336519437121705
Li 12.178693363100471 8.739232721722933 13.291213557894416
Li 12.19165349304681 17.19750716280122 11.007088382808092
Li 12.424711357460314 8.5710268355921 16.144870907540728
Li 12.687241355043069 11.403604368540488 8.871698143311491
Li 12.38560243558464 8.376100455249931 8.429343094637778
Li 11.970716702071641 12.086606926960235 17.259901778367965
Li 9.615616483536257 9.98210787548706 8.509655296552152
Li 11.698629605960415 9.503408124924404 10.722711801529067
Li 11.251988944181859 6.634248082502693 11.373483938386759
Li 11.748920462109272 14.410926607038535 10.178504399041001
Li 10.861146789129744 16.13622617571966 8.321726306228104
Li 11.399193729242254 15.457102435835884 13.398040508826572
Li 11.17638655371379 15.163792087294437 16.58568460947952
Li 10.654740419590366 12.933782650015031 7.498240148253382
Li 10.659793114639898 13.060274492764211 14.902063435560066
Li 9.943245540451837 10.261923145427783 15.762958485266275
Li 10.002017269005872 7.42229076873039 14.194059698895446
Li 9.381645409580564 16.234256823631398 11.265402002507034
Li 10.302883610420642 11.892509214268967 10.277378660107379
Li 10.045628689125776 10.719910174495027 12.985500048856656
Li 8.612582198260169 13.96370858863725 9.405790752296484
Li 9.07520433790875 8.641141788446602 11.305554533998835
Li 8.97019985008134 13.045926210640726 17.07019180423918
Li 8.686507301231712 15.28907336165776 14.644127448905055
Li 9.449646692176671 13.61156643477546 12.294328835199346
Li 7.627565890093428 9.334283474489654 13.850116735669902
Li 7.868298551973934 12.285713336269938 14.301256514665583
Li 7.666707950362599 11.386738369439964 11.217537906922866
