47
Energy = -72.85960538 eV
Li 7.973314322553774 15.246736508880495 11.195464592845878
Li 10.501320172480046 15.151715000018966 9.461762132666985
Li 10.414304396757347 16.787871934798332 12.26902661130507
Li 8.732546735047888 12.525000185300032 10.060623735082984
Li 7.994982345048127 15.361576531075459 14.186353015312655
Li 7.307443462316126 12.590493405924832 12.726377635688884
Li 12.484573363842292 14.9841804116031 11.312179492137806
Li 13.151850812330869 17.56586846089963 10.296552759974734
Li 10.013110844606038 13.996287263010732 12.707430455423665
Li 11.247445238516564 12.51494591157866 7.963941983690087
Li 13.507867425795379 15.062392144298594 8.563078653540343
Li 13.369027916112213 16.984507714968373 13.39130643676022
Li 10.92687982406294 15.485457893704844 15.125605667915048
Li 7.384666217195456 9.856549932942535 11.029125659948903
Li 9.338336883477266 12.631368713521205 15.046869870735666
Li 16.129369340864436 16.76926630558562 9.034857693526995
Li 11.441562801742153 12.53389935343517 10.811644184657862
Li 13.782223558138572 12.390998910483153 9.351069741259364
Li 15.929607576547394 17.90557369307584 11.962227763127341
Li 15.120877649985886 15.428277050543713 11.13996851090218
Li 13.307401931195173 9.60892917210023 8.561563793470434
Li 7.67693745255251 9.776652548726 14.089389804743911
Li 10.31344836040295 10.014470931574692 9.553590275560808
Li 16.436748515660963 13.544976324531662 9.59413413596569
Li 12.665910277295573 10.042114974896313 11.238027120251566
Li 13.04694848711285 14.26603245327393 13.899896420741312
Li 9.648887746182556 10.913821339239085 12.489255996644086
Li 13.939614315142887 15.521443809524655 16.25291927158093
Li 14.39713495884174 12.743565262324674 12.001450093566872
Li 17.88997455564178 15.622154523060201 11.407551679025012
Li 9.52508087933906 7.174618686974838 14.548879814881152
Li 12.08152099582636 11.64523466179083 13.68558809990226
Li 10.44695138242238 9.896939452946011 15.432908352421451
Li 9.804677709652003 8.277450233294214 12.03477083300461
Li 15.868393861982193 15.262504148539767 13.800420740628052
Li 12.114657122429607 12.839782212173356 16.335436101699607
Li 15.013952857145764 12.647074174315359 15.147152280322072
Li 17.042359956752783 12.657167750040829 12.567910547404649
Li 11.847926238608288 7.37919792598175 10.27008565949827
Li 15.694794746970702 10.511103998113871 10.501998371277026
Li 12.21405693094489 8.579538246032964 13.621365685679237
Li 13.421718432704024 10.035274715983737 15.933572837618861
Li 12.096260479757735 7.180775557897243 16.099083270710505
Li 12.153486062750554 5.967042738217687 13.16582390568618
Li 14.86764244510306 10.252741735251748 13.374211706577274
Li 14.401449179263686 7.810284195165711 11.54872836369793
Li 14.669317259093393 7.431195874482494 14.574146422683523
