42
Energy = -65.16628994 eV
Li 7.356732923137423 16.167499287973484 11.695627058156497
Li 10.732214230220357 13.871307696075716 16.40280091282899
Li 7.483337091171793 13.955164224738908 14.12718314938191
Li 12.287619584198787 11.656888682773094 15.206941272604592
Li 12.245096529262547 11.260264520208683 17.879897391942684
Li 10.148556353031411 12.744055100348561 13.793158326358931
Li 6.823779203779286 13.254683593038141 10.72764813330989
Li 9.616194800805788 10.852439043995414 15.850273314588087
Li 10.010192992722244 15.946243758040518 13.875921173622016
Li 10.30403031866745 17.010719575423224 11.016546421310917
Li 12.550121095582211 16.586228047870883 15.836754541998985
Li 13.908059540862816 13.710930498960128 16.54750675068553
Li 8.030189803756258 11.253897124584775 12.80584288554661
Li 12.396294819578483 14.511234230788677 14.068658437628605
Li 9.03436349431428 14.157409035346948 11.827503083304851
Li 9.58851168999474 14.694720412824887 9.148917334140073
Li 12.381717313060568 8.843247411641908 15.527650545966656
Li 12.304217760195968 12.239147270816984 12.18385272731054
Li 9.975405640640187 11.854980884598715 10.523826633617302
Li 10.806423802051333 9.90610900483319 13.04433662789781
Li 15.262020700143918 15.557158868091607 14.295868557240805
Li 14.564176183625676 12.717732345708553 13.826399948972904
Li 13.048255288442876 16.961104049663373 12.649375981967674
Li 11.592253709588874 14.662167561628763 11.30494778691693
Li 12.83222598733924 7.4847218586617155 12.495020092429218
Li 15.375038409324082 8.114171357140146 14.222346805572968
Li 16.04509277429945 16.64768161041659 11.35811398550986
Li 14.369068428183942 14.547800112641447 11.6892733891027
Li 14.853900576695088 10.714364730698962 16.003121642076316
Li 12.629042333313503 9.916276602421583 10.357716534075818
Li 17.025671877506706 12.93516708509487 15.266710857832544
Li 13.259975284144588 16.16866291385383 9.59002987896959
Li 13.717238166063726 9.991771702000264 13.194794939023883
Li 16.554332426371452 10.77345602731581 13.274700310599385
Li 15.834875092807403 13.94362480350062 9.38372497941551
Li 12.739105510041398 13.016699989621019 9.273104480488977
Li 17.045037596186027 13.64421723875807 12.328235080062512
Li 14.81786779554984 11.799882900059574 10.99283765141961
Li 19.24336472890059 11.641389363788898 13.27586610551831
Li 15.432620220640764 8.908907635945484 11.093764719222873
Li 15.06851126975058 10.876200827914511 8.445656119346394
Li 17.54280774053222 11.317684966059328 10.5015375707105
