42
Energy = -64.79983823 eV
Li 13.507626731777119 14.630473949980717 8.093536160987997
Li 13.94226496703609 11.607844821397618 8.021888271192035
Li 14.901961628882402 15.905190247738407 10.390840645955993
Li 8.159224274859593 13.05960894117633 8.27147208705693
Li 11.209901590033969 12.700464755466513 7.9547770749225135
Li 9.53363872433165 10.216676783963718 8.348548149076317
Li 12.849705550830915 15.848117907024692 12.565676869642857
Li 10.702980990103738 15.113147599167975 9.818653095395833
Li 15.683108205386505 13.009595712954559 9.87261844135916
Li 16.0937524374329 16.770578397491683 13.15190333047284
Li 15.348179383625894 9.79672300143199 10.28640143614649
Li 7.8222654473440745 13.934642867225582 11.269134827880267
Li 17.788356843382275 14.935724617544052 11.29720099385052
Li 12.845561532828171 13.38501080182545 10.555410518754092
Li 7.2016959808272345 11.004875318761664 10.42343500262458
Li 15.387570061070171 14.18313501155537 12.534300990927726
Li 12.262880711295136 10.406910697802243 9.927300827165327
Li 10.49303490160102 13.926528129027378 12.630184532063648
Li 9.865556354792242 12.188966031360188 10.326597835364396
Li 9.678624689411322 9.29526397705036 11.311275241563418
Li 17.24210126922109 11.90944748960666 12.317533452825668
Li 12.985452116956168 13.280151880252808 13.886065482686961
Li 8.550876128832549 11.61705764953453 12.962940041733043
Li 17.600157467900875 14.246948163625293 14.366220509420717
Li 11.390506582888278 11.228552740964055 12.527773976442463
Li 14.255046624502791 11.42205641057446 12.145470750614589
Li 12.813886710024471 8.722863555444263 12.347226277367252
Li 14.629811775649664 15.1050611322235 15.269842559014476
Li 11.341663479277946 15.116030445439634 15.360385135980904
Li 5.885215335819261 12.210370686991851 13.060909161634177
Li 8.176533011554387 14.078647565742216 14.447743234471867
Li 15.522121658556303 12.198969192050924 14.776486342037197
Li 6.9938525633794075 9.329805534320327 13.067379742402366
Li 10.026990966817596 9.431581824713735 14.331917033983869
Li 18.066928765239343 11.257430852439052 15.316272572768936
Li 10.50498047435839 12.283674506585688 15.213733985525257
Li 16.463872974142358 13.231383215189345 17.0993160367485
Li 7.601343689085021 11.195767117340226 15.496876036457389
Li 15.812982830056493 9.525651918268947 13.682838873579456
Li 13.280709047092689 12.771076551569525 16.743220113625103
Li 13.023034934680279 10.451293318322284 14.8500664788845
Li 15.441354480677344 10.345371618720348 16.783936804716696
