45
Energy = -69.88498921 eV
Li 14.720111574535164 15.56585160437639 9.220905254853134
Li 15.281061150179555 12.32521214472067 9.663872385900664
Li 16.85056850036085 9.567311113007687 9.29197369904259
Li 12.965668168507115 13.354970495226688 7.84027930699002
Li 14.151353061181133 10.134214082305144 7.763526260910214
Li 15.550356398706958 14.357095237335429 12.138833452270134
Li 16.884213381785273 11.127213067460756 12.072367246551769
Li 13.209567966905848 16.433699918274336 11.920394650139238
Li 11.394315776343486 15.939855238493589 9.482221694180582
Li 10.339065200556762 13.164133885556753 9.55986134185624
Li 10.667272254589152 11.264877644461647 7.326022961931891
Li 13.05875402523965 13.848444177297177 10.598631669050869
Li 14.618493161584063 9.56125341686717 10.989690531450591
Li 16.752905878376453 7.959344156902959 11.79928369032176
Li 14.47250913010846 7.384321857511742 9.473498894368907
Li 12.427619249428203 11.038475201175366 9.637730476419401
Li 13.05400817669719 14.14126785503491 13.60360139024471
Li 10.224006027542949 17.138314559547084 12.465624464112748
Li 8.33689711293709 15.339771547129141 10.584837970360544
Li 14.010245811162118 11.756299008507003 12.409035864696758
Li 7.457459894920685 12.638398174343408 9.107440002577626
Li 15.203544040317652 9.610065881134288 14.084713889092566
Li 10.68459298548763 14.546259080757057 12.092678417778869
Li 9.459041068406309 10.410104976742284 9.952260836306204
Li 14.559760412124152 16.08177220548248 14.738608034199062
Li 8.4201797867091 12.649319060838156 11.761663474365257
Li 13.852778153148133 7.125739894638647 12.642268425641834
Li 11.66118920545961 8.577073690241344 8.383481711609127
Li 8.133590942847007 14.963835331041883 13.630047103533558
Li 12.43171008516227 9.479481306471609 13.754052860197486
Li 5.895348867867356 13.669006726795791 11.829781300166756
Li 11.113150246681208 15.405130917931602 15.032507928387222
Li 15.377283802975667 12.573877327921327 14.765996257888238
Li 11.783542556143207 8.719946830203567 11.253472062320629
Li 11.352783991745348 11.78626691932423 12.06343409747049
Li 6.6199847092754185 10.632700993436499 11.406184450536497
Li 12.4473250953433 11.89295667106549 14.933935972439363
Li 9.377011718348331 9.956713712711302 12.861510593028365
Li 9.968833720656455 12.721312042172576 14.268008666303484
Li 10.751820148429125 7.212358373442649 13.686852942670871
Li 13.397019266342513 13.824336812899011 16.645546431438042
Li 7.2356829260954365 11.88391635180353 14.236698166770278
Li 13.334483487494941 10.32880430285811 16.83579820763154
Li 10.678008904331309 12.522401765815129 17.065345554957368
Li 10.266690973219973 9.940547477884273 15.591820816169669
