41
Energy = -63.33774667 eV
Li 8.550463139233843 10.08026471774946 11.78676084861482
Li 10.705562007496697 8.778837456334077 14.099208665820129
Li 11.443502192021786 8.732106543984214 11.007470324005899
Li 9.018403972724363 13.089499795185466 11.836333684512477
Li 10.487964438366495 11.370694738995619 9.839047139140213
Li 14.023127288381177 8.786022700728166 15.936176462520477
Li 8.917228449486617 11.589221729253726 14.401126808648995
Li 13.495933387704834 9.53419421453926 13.16016731881552
Li 14.755706465378925 8.647348552670044 10.571375042146586
Li 12.171521344717517 11.183144574294683 15.338142126780413
Li 12.593953713977605 9.877825583876207 8.231168421964153
Li 10.046146651908504 11.922595103690094 7.190171506870411
Li 7.612896884478032 12.255297819974682 9.53844115232196
Li 11.0592146328448 11.122762990523604 12.615526495138512
Li 6.470384295925603 12.461418390042647 12.470855305534656
Li 14.332317332822681 11.49135966620279 17.534245795807053
Li 15.276701824926874 11.23814095530753 14.950326622715693
Li 8.223568026154418 14.772076949468623 13.949943482528122
Li 16.377408884631116 8.86057502003811 13.813194051630063
Li 13.328250855639185 11.067841397765738 10.651095818166601
Li 16.964989269623132 10.041688991630078 16.724380839966965
Li 11.847796027220202 13.580040887756589 11.198496720692827
Li 11.010228965685492 13.713657981995794 14.0260432188552
Li 7.293162970564139 15.03964597341931 10.915174222999749
Li 15.43042288717437 11.240867759945324 8.909600369445684
Li 17.994060068860584 11.583135470190763 14.321496595768034
Li 15.908192842405425 11.209504063700761 11.967688659525324
Li 12.686171841067065 13.024484283032914 8.478939570839385
Li 13.55556025184561 12.53652712073765 13.148824859516816
Li 13.601742576509514 13.958985346751033 15.60175363308004
Li 9.894148984267177 14.307683300998532 9.237345460629253
Li 11.52887551857968 16.422030276308476 14.909515890631699
Li 16.57312949978442 13.290747302371472 16.40916300195076
Li 15.97056494333949 14.051621659687642 13.541716016228978
Li 14.747571746800828 13.786899568888748 10.717407142406481
Li 12.782928202786207 16.06255779541941 10.081450916648942
Li 13.278253824113346 15.420438765249104 12.92383802671378
Li 10.330938598299126 15.93649660515236 12.046314278034453
Li 14.770170964992857 16.69453209324412 14.837556193260875
Li 15.453965658561254 16.661191600297723 11.79360608787411
Li 12.827064547799074 18.08005366902675 12.622319717841718
