44
Energy = -68.39135785 eV
Li 13.890821919442631 8.17598363469887 10.800038964929575
Li 13.086125073949011 8.587384914362906 13.80962287977131
Li 16.540127749071722 9.948541095762671 10.20945213329872
Li 16.117910909502434 8.567707201005621 12.973239510138889
Li 11.625826363274653 6.4566679218158605 11.980704801771266
Li 8.871014827662233 7.5072090636926125 10.840945965093896
Li 13.97299527350843 10.322614416614142 8.47288785993305
Li 10.036962297587113 7.911982253153412 14.249538109135269
Li 16.97636821795589 11.78443864721929 12.695877879356317
Li 12.334741322904126 11.448110853269627 13.47729846689586
Li 11.372533089153125 8.354260665271116 9.22048306844641
Li 14.451292638104949 10.529534787856248 11.89004413804625
Li 7.922668037798434 9.898807106129972 12.492828669921515
Li 10.993050945102514 9.194875106576887 12.008591854701562
Li 15.066256308772713 12.72599401853252 10.158483203559355
Li 14.95752083329872 10.933267479523192 14.804450685386971
Li 8.623146365278444 8.455816105325466 7.7091336428928905
Li 10.916155748809091 10.916872406124684 7.458782969437283
Li 6.515344513751996 9.385022841736303 9.659608762307636
Li 12.736376039090127 13.342485487568245 8.230374878597168
Li 12.131179296023003 10.386582559593027 16.149591965731673
Li 9.158850440415897 10.195714548573928 9.794385577405786
Li 10.0965239076365 13.883224072466 6.6148968334575855
Li 7.918239471427469 11.53592987571345 7.637313558049735
Li 16.645395971369016 14.776985436355776 12.138883448546672
Li 12.14169043854062 11.09350553266554 10.294496750355684
Li 9.841745480571118 10.864744338006542 14.552422339496495
Li 14.496271742087867 13.256556233159696 12.941975191272375
Li 9.890677614292375 11.98263437960623 11.914396594622264
Li 14.085567134647532 15.640323793669 10.524939031900406
Li 16.26399687079518 13.894408449587747 15.067377755864626
Li 11.159568176109977 15.669691806454917 9.214048591139541
Li 7.291794680625466 12.312344454522625 10.673037895903558
Li 13.232781012891737 13.296520256237281 15.6512745923936
Li 10.007984113072487 12.98571140564994 9.230812927590888
Li 11.055948826904674 14.000269796035536 13.83307323511281
Li 8.005451823639484 13.027594810431152 13.75865246296048
Li 12.228977362409257 13.76324362797918 11.234938459165305
Li 14.109596674313535 15.735062721394058 13.758879270973708
Li 10.107638140744257 13.281827997016961 16.305259206597587
Li 9.196070672656223 14.720571762721681 11.486230825940941
Li 11.819718054398695 15.994963339214525 15.75345854715888
Li 9.07589041386434 15.81193722911047 14.476850433809176
Li 11.523822743085852 16.41728621757034 12.404996033087528
