49
Energy = -76.4987346 eV
Li 14.319840992701396 17.91783764538794 14.11256215071083
Li 15.173053685293743 16.812406722234446 11.09864850845014
Li 17.336929731407768 17.15451048009167 13.548027652941517
Li 16.03243524776831 15.935201547180222 16.174732922312273
Li 10.795646395340144 17.544589455273506 14.13177110227048
Li 12.709341733319256 15.968499744492394 12.606468666788444
Li 9.885307806167859 15.843795485974153 11.447343157359253
Li 12.632284738402253 15.740115057623319 9.68326406538459
Li 12.96008250319843 15.718157220027143 15.576565697539188
Li 16.730771459337028 12.903174962204469 16.919152550875378
Li 17.264081932643133 14.706305352856226 11.416657738124467
Li 15.303446757243693 14.284787473397447 8.6061988955022
Li 15.345832614101495 15.247652782480273 13.598372855812208
Li 7.87935523563608 15.488084100774952 13.716294322877815
Li 18.104451450457475 14.329009909527402 14.468423654211888
Li 11.612265534595448 13.387111419070061 11.048194303554228
Li 10.671146478778773 14.652002944895768 14.130509962284437
Li 14.439892561976965 13.919234561649263 11.106630413941863
Li 14.413370005917791 13.21875780743731 15.705386032210898
Li 9.461632171120419 13.558709328530432 9.360275846794611
Li 12.17128270235609 13.386321516506944 8.036606629026643
Li 6.976077222450864 14.51707856902565 10.842884651981851
Li 14.094952607400407 14.407805211854278 18.209866856615697
Li 13.135086821913376 13.15409744109971 13.387414739979837
Li 16.243837330206446 12.470187222561098 13.403375520679319
Li 6.317768057768212 12.640344814760706 13.148906918087453
Li 13.884419354473081 11.31160827807997 17.737925770480167
Li 8.859028669456288 13.19194723735207 12.336815240211292
Li 8.548387872072796 12.83165894546547 15.404420294272077
Li 13.903536321270908 10.72594595480358 12.246928750021834
Li 18.849960508107895 12.229198676097921 12.086147706736412
Li 11.631019141682215 13.03591766815242 16.54850371407364
Li 18.51416745859459 11.290277249656981 14.917702853883204
Li 16.31348632480622 11.902679504232111 10.458734784469273
Li 7.72867471174511 11.318924968698914 10.566269706069665
Li 10.630542965390257 10.867216911583142 11.43101576386122
Li 13.436293639462901 11.486893997031189 9.603315626040088
Li 15.710743665774174 10.390057337375723 15.322708162745196
Li 10.457483593943653 10.685925582358749 8.745524295616582
Li 10.774550394583452 11.81307080776472 14.037333480464056
Li 16.949528226083192 9.802456435676998 12.613007885802572
Li 8.395909939496628 10.333534359890939 13.463775449449214
Li 15.245424934488744 9.04613881698807 10.218427985865882
Li 10.26676801559502 10.245535969152561 16.286253020861317
Li 9.154250190512192 8.559029266637413 10.902028405480813
Li 12.974139268682066 10.543076362182331 15.040278143115401
Li 12.28285500962406 8.681716409082322 10.617588705033628
Li 14.276750698373526 8.201357385614624 13.19809016276377
Li 11.14708568427396 8.865623202696986 13.430217010608828
