43
Energy = -65.88413393 eV
Li 14.93667044437266 15.878289414926938 13.805298235667918
Li 12.380824764570587 14.669920976653827 15.272051516078523
Li 14.928006184262149 13.040231474696812 13.84884543706594
Li 16.705001398118547 14.291741025272307 11.542228012544884
Li 16.57750893863964 11.12170350152683 12.255050042999349
Li 15.360037889050007 10.309298358706688 15.133866518301284
Li 12.238723923455382 16.977461683690095 13.313960849666822
Li 14.21233089984651 15.9594938129581 10.941604479424253
Li 12.601084186195038 11.761281711440152 15.352700198850057
Li 17.002405403086957 12.006020890957895 9.279937292016669
Li 15.443944239006003 14.458547433396893 8.56367369496967
Li 12.687085255884762 14.095823043563643 12.450335376338703
Li 9.560062445116975 12.882831341106797 15.49069969628013
Li 14.642023484163746 12.753403307220289 10.664659436247021
Li 15.146864352398152 8.281174874834585 12.756046937672528
Li 13.681664517867652 10.72960816937465 12.787953386166805
Li 12.776225770356374 8.77690723429734 14.629175403954648
Li 14.945407495054685 9.907166420443335 10.062966954368989
Li 10.004988913331138 14.932974783736297 13.335784522574409
Li 11.101225525686717 16.248291771022842 10.665603175107117
Li 12.527880776753275 14.13046570943509 9.17690429664272
Li 13.738278444798606 11.637036607434402 8.031830293115407
Li 10.138174891525347 13.57779286344423 10.72313432112973
Li 10.285038141301545 9.888980298640424 15.659986979484547
Li 12.068703672118618 11.331186593742855 10.546691157723293
Li 10.75381245208031 11.869714940166803 13.170958270952006
Li 12.694524997053279 8.464010049786928 11.027020908074928
Li 12.379476086307333 6.412498995454809 13.06602190594837
Li 9.650721732199198 14.956963849129465 8.21320839085674
Li 8.111808720033723 15.544533377657693 10.968574224940522
Li 10.624015179675244 9.046106841544743 12.763115158372255
Li 9.65422958246403 7.105007443938124 14.39403558609379
Li 10.554223103651498 12.087679372967981 8.164119555949805
Li 7.978202746145186 12.79356220230992 12.474246799136592
Li 10.13912912876144 6.815911555325309 11.06115684512595
Li 9.199776362455667 10.442579699293146 10.63277183636085
Li 8.115780080050234 10.270922844536958 13.827278273507165
Li 10.973268557068446 9.128147245853764 8.705856015476126
Li 7.7679078623653295 12.920560789150343 9.432103974519753
Li 7.673863052107664 7.938188665594477 12.250108427802104
Li 8.087924945996166 10.504583469246677 7.829530620732177
Li 6.445399170029206 10.373278417684336 10.80239059646522
Li 8.058581701792452 8.06974092763585 9.355400599764025
