42
Energy = -65.04007871 eV
Li 7.3364013909943155 7.639948952520085 12.417612036159664
Li 7.040577095544447 10.668666179013458 13.30502106078235
Li 8.30584795988062 8.66117472629882 15.316558719327672
Li 7.906561152651144 10.076246618732965 10.544305683540117
Li 10.02017450114728 7.721277937383093 10.720293558837776
Li 10.000597804340956 6.573291486008227 13.570063604926835
Li 6.888166539819505 13.162504438921955 11.19837405414155
Li 7.644892892944553 13.457900475748486 14.355842462798236
Li 9.605588675302773 9.238707207940084 12.957228020240331
Li 10.778554767576713 10.745685937523634 10.806135772705076
Li 9.88904922499677 11.356100392693726 14.887972789136544
Li 11.976375347011173 6.691407862060793 8.6173631982026
Li 11.511435722735419 8.74845748763514 15.181529539155616
Li 10.003369961213638 9.347527332213279 8.248133596106792
Li 11.142025971184795 13.696916112837522 10.458399444846025
Li 12.62292273981602 9.130295452434273 9.729105508093385
Li 9.229835096121157 12.27418330816385 12.32582540992715
Li 9.36902460864421 15.056718898214765 12.405312190589436
Li 12.662707543661162 7.717405626755877 12.187113110475492
Li 9.019260379559029 12.314939747006308 8.954181109419869
Li 11.890502448124762 13.203222599628937 13.222965459452523
Li 10.658554687598915 14.326700882755556 15.325029772876297
Li 12.828970096835034 11.650693631279314 15.663669622342892
Li 14.581203490220268 9.195539374403223 14.531675492436486
Li 14.832897183956483 7.718137487868427 9.04380160382451
Li 12.684427596322498 9.1811745524338 6.843399031735876
Li 10.136341421229137 11.529888332892854 6.045140723375245
Li 8.815127193933526 15.228647204040858 9.48435342268079
Li 11.712246075787549 16.225964318014167 10.063456409880251
Li 12.345777930590362 10.377075499303102 13.086678467239313
Li 13.371241337165028 11.889508203445619 10.823814464118435
Li 11.822818018358142 11.641044147659796 8.280072755408964
Li 11.952321460777025 16.121875460202247 13.169636100757765
Li 15.00185510217107 9.674277063312452 11.485554395379877
Li 13.834246615546117 14.525474111292985 14.974927924394057
Li 10.998384164566893 14.247100647774143 7.470150725777785
Li 14.852933811811173 12.056269950212577 13.45947390234264
Li 14.687189234490837 10.831418876172021 8.507360542180484
Li 13.75971483504544 13.827954981329857 8.78745714956028
Li 16.1968427933002 12.472676888813604 10.749126695456926
Li 14.020348788763805 14.539366363925643 11.758600635485298
Li 13.200785974554867 12.300280304843794 6.029853539124
