43
Energy = -66.77181361 eV
Li 11.435277653660858 12.200271016091786 16.69204773124936
Li 12.970954804089784 14.55759680456322 14.83429927835027
Li 10.45735513140392 8.915432889696032 15.421466563426547
Li 9.905898150717674 14.215476218864033 14.73971510848079
Li 8.439398974673031 11.401348134383278 15.200027730386338
Li 13.262878019289003 9.717624558042232 15.842788122778273
Li 13.965371890506248 11.947249899282177 14.170449269073629
Li 8.912975900772881 15.333418216831564 11.835370302735189
Li 11.32909736081944 16.622332812102314 13.264392519000866
Li 16.072031995739728 14.444938005416335 14.121946993788987
Li 11.171927572781954 11.594788015579823 14.172119778759985
Li 14.265214528140937 16.19731894602503 12.279697527131587
Li 6.531536825706653 10.550240056266857 12.279762449858383
Li 9.305893732971889 9.668624158090122 12.762925678752923
Li 12.265283087121484 9.15709888175606 13.216970388392465
Li 11.63551420151892 13.905518920925372 12.36353846057439
Li 14.452154470793168 13.60189035771876 11.898172224510464
Li 6.811048847236752 13.050900104485617 10.430042858578489
Li 15.21778040005989 9.078386840898405 13.52221436562672
Li 8.877233867747107 12.503305301011235 12.520251386359464
Li 11.761427505377483 15.676730892755806 10.321550838839363
Li 16.93397724093756 14.694434530867092 11.214419396731095
Li 9.788749871494176 13.339438658555562 9.923401828642117
Li 6.03432766195356 10.142065601832163 9.178907959765278
Li 8.517723590203097 10.711273826013384 10.130328491988374
Li 7.725087912563004 8.06452375037698 10.736436623709658
Li 11.33841429610956 11.22465557746564 11.324494193796841
Li 16.661316669335996 11.837144160838951 12.511622449492927
Li 12.779816386347623 12.904281237419571 9.690308868953666
Li 10.49202208892401 6.981353544695297 12.647276488733862
Li 16.2197208667086 9.293895427633467 10.505810485771702
Li 13.037354509413968 6.8894165376561745 14.463371340411896
Li 14.464328557823505 14.971639611070662 9.072659741764108
Li 8.163322460095864 12.186423959371048 7.688453789724502
Li 15.68254068371419 12.204100400461973 9.592811871647127
Li 11.283433950682173 14.112849372007869 7.544815176180559
Li 10.792410278342501 8.739358215691567 10.245806017734436
Li 14.057742305396323 10.749599383235964 11.565067635106711
Li 8.674957996877612 9.063411755793634 7.912572192733979
Li 10.90800408220273 11.149781858173057 8.235620994614806
Li 13.552923767059605 7.696329702851397 11.292130943338506
Li 13.471090182905947 9.862772568839093 9.021622301345861
Li 13.764231918942047 12.368818443231994 7.141171641869026
