40
Energy = -60.26056312 eV
Li 16.662826924161035 10.0419064655931 9.039993500575079
Li 17.25423959845373 9.178491075133225 12.133690626288733
Li 13.729789560077169 10.750993015552163 8.659809697139677
Li 12.903585927367223 12.898753628865558 6.722237672371855
Li 15.472856955214203 12.997101130250922 8.740625981934983
Li 15.709553246786156 11.48380220114895 11.333319637228364
Li 14.505049596783472 8.962067702741722 10.907931320720971
Li 11.56229873719852 10.180289143489535 10.472597761689226
Li 15.714945007712654 10.865929801576865 14.115708401244829
Li 10.95517842865561 12.825096301371957 8.930726258488397
Li 13.042715696346695 14.856587104107698 8.867306345368188
Li 14.520376253643791 8.246928200300726 13.758273482454237
Li 13.300964166729802 12.653541185027867 10.737925618512664
Li 11.71451094035754 7.791162315421708 12.215299396769888
Li 15.159629724536432 14.693720943264768 11.307759908868775
Li 8.780518061857016 8.470725593217818 11.108881061120565
Li 9.071451437579174 11.373074113990297 10.933173338472807
Li 10.429180770979478 14.914435357031728 7.043370354884868
Li 16.85791446870034 13.453378193174643 13.320597992065258
Li 12.99831951180151 10.550391431761756 12.898275806326174
Li 10.061745089785743 9.996517669609128 13.116622683158992
Li 7.327697958435858 10.012215232519596 13.336569833172167
Li 10.542376788876663 15.809178692985865 9.887258735129887
Li 6.282209572991912 11.765735446950757 11.101641311852914
Li 13.872946773265703 13.284717570826135 13.735283690537578
Li 14.549594575989623 15.794967558672093 14.490076512419465
Li 10.915773566595583 13.410125397534038 11.87503993583514
Li 8.285119354021871 14.035045278609049 10.074802778478045
Li 9.106196125434405 7.582562400533556 14.130402796948779
Li 12.611737261582592 15.715818217729717 11.917579506981953
Li 11.756852018887649 8.77467971733319 15.018542253325405
Li 13.348090818288345 11.106310615886896 15.86239910617328
Li 9.151012129319636 15.703080333086666 12.465713273109506
Li 15.61523124082099 13.291706638045191 16.066430370198045
Li 8.324858679750221 12.850391709372973 13.28365333048277
Li 11.090299325720865 12.28665431342679 14.490058752887187
Li 12.798393038485905 13.98518707447144 16.554914449814994
Li 6.2207358790329 14.626659827416246 12.084537388225263
Li 11.375124917392512 15.174185473178769 14.360994929176778
Li 9.248279348271037 10.426171553378065 15.769749413008569
