49
Energy = -76.81417159 eV
Li 14.7276664541894 9.383696777275171 6.841004337369843
Li 12.037960494113326 11.09792421103767 6.9381385709745755
Li 9.608717950637121 6.923520175236459 9.761605749186135
Li 14.9714685128937 12.616158743304673 6.7800452753437535
Li 12.227254789639597 8.664440507422961 8.83970470601363
Li 15.211639037278895 8.519033767722872 9.954116458388032
Li 9.225913206070574 9.877866489015295 8.788220576067612
Li 16.909625795535835 10.834469210055383 8.552790879731749
Li 12.506504275967547 6.7929169040966775 11.424622131923512
Li 9.796982865388562 13.356311601341009 7.980828073467278
Li 14.157889343735166 10.98076667081313 8.925172504620262
Li 12.75925721332305 13.591609114278528 8.532817363538895
Li 7.732076728150753 9.137610642108696 11.428820730832586
Li 11.212488315447597 11.359353299432549 9.706612103996969
Li 10.49232896133026 8.8367465561072 11.470244983709202
Li 9.419644480311684 6.657647673280484 12.773099855184757
Li 7.981755521076339 12.397744578664412 10.341462757817741
Li 13.05384387314957 9.6478332907639 11.465805836966823
Li 15.53468349506714 13.38301855328164 9.687733798365443
Li 15.765801094365147 11.168758883048957 11.48489662728216
Li 14.60652922189954 15.9342838679807 8.64865466570102
Li 9.7731990721353 11.455430183594123 12.1813599495251
Li 11.546221273732733 16.335630973034487 9.27643223609895
Li 11.891622799391701 8.077649455654091 14.171411922018393
Li 13.305392574966197 14.88926964462694 11.115904877226273
Li 8.55012346238705 14.242445281403423 12.847496211336308
Li 14.771156093703752 9.196897505714565 13.495864424104465
Li 8.483654918407371 15.68494230069239 9.994098444844306
Li 10.51826092345761 13.99323000353344 10.600158689764156
Li 16.85943536308106 11.599611873978057 14.312558729201182
Li 14.276789874535158 12.397805489873821 13.769500706458269
Li 14.08802723849893 17.357567948924242 11.520497543629713
Li 7.104859744736848 11.64385294760335 13.500230976071997
Li 15.858273257983216 14.427121080315898 12.625491970628277
Li 13.051095924664041 12.295044260974214 11.355775187826167
Li 11.931834916864881 10.796466210608116 13.891761205452674
Li 10.896926122115707 16.37067617906547 12.253182898850298
Li 9.446313104723304 12.352175691097136 15.053351095160744
Li 9.129409093896136 9.42700569234458 14.202616863582266
Li 7.2590926469195045 13.854364213468115 15.759581544429103
Li 10.13439505644749 15.164473867974722 15.318890857091192
Li 14.087211080230713 10.671798635099545 16.01686958706896
Li 13.37043765869458 15.431886617806585 14.049063458198907
Li 15.317679183272944 13.789712120695432 15.876731611171126
Li 12.23742332266634 13.03174514060416 15.976197401472165
Li 11.445299293186912 13.591449683781132 13.241390474828242
Li 7.674660019298459 10.893934863344223 16.572369894471148
Li 10.854547662201213 10.335015906507362 16.577863544102712
Li 9.59671771658333 13.045771542236984 17.7106681845258
