43
Energy = -66.29051609 eV
Li 13.434626502287914 8.533018786441946 16.93635872430817
Li 15.88829423285543 10.270527121671556 16.13175493670953
Li 15.518431497032466 7.373487369156504 15.044415644888891
Li 13.128377591494223 11.683146120146295 16.304256131555743
Li 10.947762898477361 9.531655365459697 15.262676512386593
Li 16.474320325622063 9.749703555090809 13.215527707923325
Li 12.396724918795966 7.022396613014322 14.32319541089069
Li 13.84121156685584 9.49898309587809 14.40956550025482
Li 14.829409051437793 12.336685170283525 13.731041128420715
Li 10.405227784455994 12.998161930938249 15.968788450681329
Li 14.471074774138346 7.733506352436408 12.218911983523379
Li 9.00272674613769 11.32419925187062 14.130001405935467
Li 14.197285706574192 10.702630708681822 11.406705749001746
Li 8.865091291973494 8.952559884690654 12.38207384560343
Li 16.60578370032251 12.180346937601476 11.157407755895358
Li 11.924596836960536 11.698779501473595 13.734485664258715
Li 16.304419473166917 9.113414320398515 10.282529554127523
Li 11.759364866807175 9.280917864586765 12.185848969518595
Li 12.638288836332272 14.39312925863305 14.421128562303574
Li 9.901015540377125 11.471125541170979 11.44380469622003
Li 12.37369611643615 13.289034602433938 11.425913571420566
Li 14.455070478537332 15.056950049937674 11.917561104999697
Li 10.080495739993362 15.946507058153319 14.995896477333803
Li 7.596482475864189 13.982561928898267 14.382798150411142
Li 9.979736895695948 13.914217817830167 13.105302699408071
Li 13.222576428674564 8.497351895829485 9.548679688337904
Li 14.737173562043575 10.823624014533863 8.354218695007889
Li 12.032691246177373 11.20141039875679 9.381389430451582
Li 7.962707361086709 11.224130284782872 9.500635452952928
Li 14.41591730043722 13.346878991259956 9.576121075613688
Li 10.24575366945262 13.646152533343868 9.371730709717294
Li 10.164185425539179 9.126414374276019 9.390026551880911
Li 7.959278382344548 13.925660972162104 11.094186754570183
Li 6.909408282856746 11.4692114129813 12.296322979972176
Li 11.389087796157666 16.006640695520012 11.878071852830285
Li 12.138456236484517 9.859620251164193 6.930062235752502
Li 8.41375783231508 16.412182339903513 12.493199995317607
Li 12.466280799972864 15.471874451873257 9.136116995213426
Li 12.611610593575394 12.954842749427266 7.264172943216689
Li 7.647978179471458 13.964662436595372 8.087155768566422
Li 9.812787278829585 11.832030142545909 7.273766950644528
Li 9.299361340315919 16.262476579060998 9.467553315143435
Li 10.27433263923241 14.90655052485486 6.825600321659478
