49
Energy = -76.42606421 eV
Li 15.384117674988111 8.280963719158411 10.456562607338705
Li 16.18607548810091 11.001251511703654 8.62704683402927
Li 13.868541675538292 12.554931259540684 7.321375837812882
Li 16.977520361535245 10.791034088443896 11.543079965169785
Li 14.112491642569374 10.594500499216299 10.852694767396146
Li 15.439155105396392 9.865650261420475 13.845721522642341
Li 13.176117889726465 9.7758322225165 8.371653514279679
Li 13.571051129277539 15.303538672250848 8.505235494648145
Li 12.461430369446937 7.114373044220314 9.833105638076264
Li 14.902147051594765 13.11769931221488 9.919113369364187
Li 16.632473540222144 14.152811101397404 8.101271412946769
Li 11.007760075135732 13.819814485825889 7.1471787413323495
Li 13.0942593347502 8.428571098435665 12.557882913456355
Li 10.246618880829317 10.922552194990411 8.173845601869779
Li 17.30506818970856 12.54189053919724 14.186233341442351
Li 12.021197513088024 11.730958040666808 12.311432131056064
Li 11.942768146371206 12.590236065716363 9.588253794161425
Li 9.40436687560773 8.193911125057634 9.34217058287567
Li 11.371501485497891 9.47960932953026 10.631453290356633
Li 15.53333052284512 15.919607609342524 10.534903152170777
Li 10.99712383510195 15.446205895869648 9.872818931584249
Li 14.689933088558185 12.537976046998242 15.744602167675398
Li 17.22767838802537 13.704258283634706 11.29104921328634
Li 10.304531026409983 7.010343422958432 12.156779188087558
Li 11.587011069579479 7.551540810425021 15.05330809830544
Li 10.250864811009196 9.460738558083618 13.422826949571673
Li 14.893647585481588 12.458657434877576 12.847421096819023
Li 8.885416062900157 13.459289291381221 9.362777855999179
Li 15.057070245188163 15.200156330458299 13.58813263701097
Li 7.356474124584922 10.717572355807459 9.303644984280776
Li 13.287206283735477 15.293607845696636 16.260857517599653
Li 7.765577324806382 8.879248915843776 11.808037346071917
Li 12.648308593803932 10.490036238366214 14.734042635902105
Li 8.451728642114498 15.948832162657093 11.485123163590625
Li 12.92742625008654 17.254230682428872 11.234007857174893
Li 9.310257725547334 11.175732041771283 11.209362514019988
Li 10.009541202735152 12.222005972221346 14.539157169440942
Li 8.393950983174907 7.7744596304902585 14.65713398882031
Li 9.878981056797793 9.89992160121097 16.227656554273626
Li 13.080005238501816 14.475043572171218 11.59930261982246
Li 12.483002009731557 13.593105092115781 14.343079175990088
Li 11.198348224238607 15.96694672468851 13.402299548922402
Li 7.079221649310704 12.869814442875578 11.639803273396343
Li 7.608841547366585 10.86460313690937 14.084489834727094
Li 11.696283955299105 12.385935107498685 16.956780193688026
Li 8.242303404872423 12.434106641386123 16.7418825869794
Li 10.043917519390117 13.782830081421471 12.0907316317586
Li 10.235912581103634 14.707946959693697 16.000228835257687
Li 8.013792279937007 14.227974515321334 14.116199881756437
