48
Energy = -73.8879289 eV
Li 7.472043159168414 11.809511168518751 8.027005913694271
Li 6.765976661590516 11.69681100950768 11.056080893025607
Li 9.143004877080953 13.563679917978492 9.951038408699375
Li 7.101843169627099 9.107695834953908 9.348145311743053
Li 10.567968861135014 12.231427970728223 7.782066732610442
Li 9.47782411328429 9.457912913001369 7.506016436519692
Li 11.799153776194377 14.9117163549639 8.55211746529114
Li 10.467999363801226 15.888997144144797 11.069052354716481
Li 9.255484196423573 10.725636009514625 10.092294128798608
Li 8.092682876076832 14.23004938167932 12.668948677958122
Li 12.900993549031789 17.54833681022091 9.612319572986651
Li 7.995996428573889 8.491462058089189 12.188547120441733
Li 13.658711813080311 12.391264526116887 7.966479603953527
Li 12.169934701085127 12.763622988910791 10.288237886140477
Li 9.949870639645258 7.793560356183389 9.98067922278878
Li 12.463129436743177 17.748234407568972 12.56886791410244
Li 12.001828323187476 10.062839805501017 9.31437031664126
Li 14.869350740073273 15.177684559927771 8.938780273012437
Li 11.075775988764144 15.171866398158102 13.784645425508547
Li 8.443460534749976 11.11586981582325 13.349524261279823
Li 13.227122016102747 15.294895460805717 11.416144397029997
Li 9.328781883680742 13.250319386771297 15.305632144318443
Li 10.560771792366474 12.68454398269851 12.465332263182116
Li 10.783656422134818 9.430544570801903 12.195554237279456
Li 15.375337086243956 17.087153753942914 11.428293225540576
Li 10.59114426189868 6.475629619190629 12.639753463145992
Li 13.934100374749146 15.929937135709483 14.480267530698404
Li 10.68302233506807 11.820884586399417 17.65142751327428
Li 11.189287376934882 11.054164669980363 14.86788554894316
Li 13.35311130374498 10.6590886972482 12.119805584258362
Li 9.788061721791225 8.410736830714265 14.663919841090454
Li 13.392307979836412 13.21544854093886 13.395268444205147
Li 15.073786325240755 12.866005438360284 10.667755067009223
Li 12.435699995177686 13.608224743700164 15.995675123459115
Li 16.664102743428572 12.584068939244824 8.282203898319706
Li 13.024688729154207 7.7941858111148665 11.009740989747549
Li 8.483642162699336 10.435652479866635 16.24198062907514
Li 15.009074682520179 10.149314438045954 9.796941053802087
Li 15.96066538355176 14.585634791380143 12.94870980817863
Li 12.7609435491086 8.227884299951175 13.99405981075664
Li 17.429773513207977 14.53816231341656 10.44177765095824
Li 13.686945154345008 11.579907871825881 17.738695396978862
Li 15.369348629170531 13.422480919831472 15.776198533555798
Li 14.022808865873 10.66753580659404 15.063933833263492
Li 11.709271125678653 9.129921369459307 16.846974622809153
Li 15.5606099817161 8.957321374885778 12.602402984794937
Li 16.01178469857827 11.763311088684738 13.332441500034536
Li 17.536605169820973 11.42574420728155 10.935682006774828
