47
Energy = -70.42312653 eV
Li 17.21888047588279 11.419300081148913 12.918455336595214
Li 16.607646932110413 13.964559961220754 11.77736847214837
Li 16.863253352254684 11.747361900481502 9.908592284386074
Li 15.801623703819123 15.997176233031977 13.653900331882513
Li 15.650304406185034 15.122925911061726 16.386819192670597
Li 15.239118976913396 12.97104116065007 14.542595564593626
Li 15.99446524857389 9.343042631861817 11.191056128239751
Li 14.786098888181245 10.020872648844872 14.025300707674795
Li 13.180790456392447 11.072604581117897 16.265981235779932
Li 15.395733685457905 16.386982569357844 10.607833787123143
Li 14.43891394081824 11.9814998188091 11.838016316966186
Li 14.815684609705688 13.790952426321587 9.439266697273382
Li 13.34366682791533 8.201821617731667 15.891034249574952
Li 13.518248147983812 17.579035857673595 12.542684702215201
Li 13.20865263459024 16.007790665747205 15.057636070041829
Li 13.022204545913896 7.11021679006942 13.220805655378356
Li 14.109351913006334 10.762709274796725 9.119958584153522
Li 14.424348754360397 7.037242416674074 10.746166950421616
Li 13.57679630713436 14.70003794006201 12.213309159227224
Li 13.147903086964549 13.791005336663337 16.927131284649423
Li 12.206676791189086 12.945963028893738 14.026122543335227
Li 13.165204646278772 9.508030720708437 11.644240544195682
Li 12.571903548792788 15.783356600397136 9.660391802841273
Li 10.530893224177348 7.1766828452471 14.70319220728046
Li 11.76468334542726 9.786860791548023 14.097948417496983
Li 12.217893024646758 8.099799806143901 9.318518942600583
Li 12.222072044850893 12.96531378664292 8.434794086805478
Li 10.184138355060549 17.12501156618513 8.674656978839051
Li 11.157751533941507 10.900193658132896 10.175807797921784
Li 11.76996965453878 10.179391858499589 7.347254777391356
Li 11.029423564097579 17.857371447764855 11.225299614291512
Li 10.585407502169605 14.667799359037755 15.900776295947653
Li 11.14535974467033 13.65443515347221 11.214341181200925
Li 10.695189977108893 9.183060217264744 16.73404715099305
Li 10.966526244671073 16.002478571170858 13.382744597392627
Li 10.052536677264799 11.510286852674911 12.7158149521511
Li 10.438656832952283 8.299613402728335 11.82008886314749
Li 10.040845870107388 11.802260130018338 15.714588781855307
Li 9.497989252921053 8.84932416832404 8.864648473824383
Li 9.756305656152508 14.362991911674538 8.698963108873318
Li 9.286921972181652 11.574384169023547 8.04470844511581
Li 8.746558614652455 9.360011827430878 14.171997983830288
Li 9.053289614461654 15.71566819463484 11.167176744314851
Li 8.910680373371086 14.046331784142321 13.574226469735418
Li 8.104562123231103 10.041265389406222 11.112450078014039
Li 8.210121004637983 12.963663610172604 10.814816616028203
Li 7.174511734806195 11.708209417150083 13.465211883644317
