46
Energy = -71.46029991 eV
Li 16.18976961959273 13.920249532514912 13.076739185701546
Li 16.570641186527293 11.011602305548756 14.05910770699455
Li 13.845991481339388 14.911760940106559 15.224844087855477
Li 15.540154224916995 12.704523263618315 16.267760990531674
Li 17.28960605007469 13.104889731980238 10.225794364047976
Li 15.880686487042668 15.873973836464433 10.587581299063686
Li 15.200107021793665 14.201894825570088 7.827842659911058
Li 13.746631459464561 14.215591162233187 18.378587843643885
Li 13.057488506981473 15.624099886882389 9.27789090203933
Li 13.944587001981686 11.138073686526917 18.634978252400792
Li 11.022843099646996 16.41215091102786 14.020021423236463
Li 13.40385969093101 15.436408365293579 12.378046768857438
Li 14.278457136813593 9.938220245480972 15.8730804949694
Li 13.93824897486389 12.278452061941367 13.533954493560545
Li 14.994563095133069 11.254531052868678 8.561733132519821
Li 12.173699516664056 14.926518955687115 6.499219729391917
Li 10.841731418658924 16.577547295268044 10.950928025649954
Li 15.691928164980999 10.804413850202737 11.347649138955992
Li 11.223870178888914 14.864018132094763 16.758105606343825
Li 14.566663913431608 13.392980651535733 10.63573356576858
Li 12.734098377244827 12.413369031488918 16.500515376095734
Li 13.602535646241249 12.259064564240957 5.883464245598425
Li 11.077789820060627 12.527977766659529 18.70152065262335
Li 11.877112927388838 10.529892633273938 14.360790306440453
Li 11.343008596975901 13.640963488867655 14.080415619708043
Li 12.784566007450218 10.942167242973916 10.855412338988291
Li 12.39338434288974 10.109241223237774 7.698619458465509
Li 11.455094280887737 9.809957736473136 17.134355981747596
Li 8.669319662526279 14.725612359481582 15.106857533109993
Li 10.413812806763646 12.210208614580518 6.629203111937693
Li 9.807993039837761 12.060014220328828 15.883662374020203
Li 14.09578513361322 9.102758434774408 13.026323294529371
Li 11.63987862273362 13.672266986792426 11.07325251130407
Li 9.192735208797485 14.543008316306087 12.24773915423869
Li 10.107091507521845 11.575004312932439 12.372646971711742
Li 12.583750289833034 12.902571720636539 8.345598017646056
Li 12.094518327793653 7.738580796018752 14.932418017099476
Li 13.721519616328655 8.4523270331789 10.038266119615367
Li 10.081590967069248 14.428543034469104 8.82137752297399
Li 7.735130314888387 12.08842661816331 13.466671068459519
Li 9.319070688923608 9.360291987102357 14.437401812783635
Li 10.26345220775623 11.359971184991277 9.461675719427163
Li 11.247621621766678 8.769797871990683 12.107072296908802
Li 7.9494001337833184 12.650634369058595 10.41213917994997
Li 10.539103930975246 8.535586799122637 9.349111395842009
Li 8.328763979456513 9.69170494932381 11.38164669830531
