45
Energy = -70.02233137 eV
Li 14.611020447745362 16.00360811921121 13.605033670510194
Li 16.598177220746475 15.05585977593346 11.367482661692511
Li 12.240217786205003 16.21404891709912 15.631044339006952
Li 16.91658912145827 11.950711502661203 11.45839089145412
Li 15.197109177384199 15.28008623172874 16.62512367986264
Li 14.391678366443225 13.374111243050944 11.99833272240235
Li 12.10989153663722 17.695311695675368 12.815167099758199
Li 16.11709424664393 13.398656994948407 14.2128488596579
Li 12.079972626693094 14.880389966701058 12.757908198549261
Li 13.252243787906234 13.748330189083063 15.25265085882871
Li 13.679932623035256 16.03983839138418 10.62088045951243
Li 14.80027240587159 13.385476806565162 9.237278964682915
Li 15.918973500583427 10.417863440949706 8.949124370308185
Li 15.011716974210302 12.132345691594551 16.814325659543993
Li 14.623320522173751 10.4651787140315 11.510779280976204
Li 10.011491976319238 14.028163633523002 16.424699132810478
Li 12.818938025234543 14.033963784809453 17.99477760068666
Li 16.685074245836798 8.681588962089268 11.461583330352441
Li 9.70931627884959 15.718301951044893 13.760760880465977
Li 16.283054432755026 10.305531760862552 14.116858821762214
Li 13.891607690974737 9.300053502567428 16.12377168451699
Li 11.95921844991819 13.678380971801722 9.946403898607942
Li 9.467368314809361 13.921947006332823 8.483488478881217
Li 11.908336640072017 11.436105088545597 16.66339457750265
Li 12.211485511201762 15.354544818511888 7.8095770838875
Li 13.77674836351498 11.329118981560153 14.107640106118588
Li 10.600865434072254 16.182229769659305 10.501884507975232
Li 12.00444409424101 11.80621210321544 12.01902234979403
Li 7.849405764312353 13.178855966230167 13.957282720498931
Li 13.031980532589591 11.00836739130381 9.372168780510702
Li 10.6792156969603 12.774690380671247 14.204902531665548
Li 13.922250100099456 8.388529561910241 13.15372851655991
Li 10.117595462458441 11.340182320386669 9.65870153845324
Li 11.500219143994345 9.193467515783949 11.229959208957236
Li 11.403436902305982 9.749610213283374 14.291610088089843
Li 10.957993340768954 8.61925441358902 16.93405922521848
Li 8.687373464806663 11.004169696126533 7.366671410552784
Li 13.959267468027901 8.202766864887959 9.841319636260229
Li 9.077179503669216 10.940776621651008 15.77787059322462
Li 7.421874947487742 12.011440297632278 10.249822897349784
Li 11.626276553559586 12.276994610595118 7.183270432513238
Li 9.544597262617712 13.5565712803825 11.56597523916913
Li 9.126285093981451 10.765890977666292 12.497881946837438
Li 11.158893533695116 9.226737780500457 8.037257518933144
Li 8.58528334432199 9.093075618993632 9.826864777214189
