49
Energy = -76.71885492 eV
Li 10.305655694669555 8.629888537410206 16.206824346253477
Li 13.096203060360939 7.588020432285001 14.847660515517903
Li 7.671615677833082 9.196073707058169 11.15553922046115
Li 9.971031735756858 7.832858468414139 13.099863910278456
Li 8.580259555400001 10.383982682104381 14.19396896744425
Li 13.1978106821722 10.0801217435837 16.63764928230739
Li 10.490870137582004 11.887441030568398 16.163252768600266
Li 15.955170523101156 8.641735369159015 15.925631984278205
Li 11.498225526448934 9.981457049823375 14.162540471232605
Li 15.732319652513691 7.668983734381049 12.934556959703183
Li 10.685273726835353 8.023173667083467 9.96724966201821
Li 12.853145769415994 8.637939860596614 11.919522398976786
Li 14.540615513177602 9.917731180248394 14.014673958900692
Li 10.2589214085807 12.68928315296915 13.159929853633907
Li 8.39920164047048 13.882368861307521 14.711270285378331
Li 10.02325010330269 10.385964061373206 11.5140672953644
Li 15.642761928353426 11.844545024577831 15.845098593247329
Li 12.96592966820781 12.373162252046528 14.775130985155169
Li 11.731476386181745 9.25347962133232 6.902674856898451
Li 17.31684742859347 10.395705917561418 13.57053033605957
Li 7.362216159931707 12.363063229955259 12.198111348234994
Li 9.07664226252109 9.79657602983301 8.317560153649
Li 12.723028484939872 11.449414396456053 11.998160027239834
Li 13.963142176017394 9.029753399979985 9.142473565629547
Li 15.513165005001659 10.199976770435368 11.317354150899869
Li 13.307444308122191 13.210190899081296 17.367454725637458
Li 8.722090377092632 12.198131234114626 9.695040628749863
Li 11.782846642026735 10.634348323528558 9.29812097534519
Li 6.712415301733988 14.452498036257802 9.698802067105419
Li 10.642806984344908 12.29425112207145 7.3237944282540814
Li 15.122906414497407 12.65144980629167 12.934118996619311
Li 6.797318556452142 15.530349189069813 12.569716603899112
Li 12.379467284784468 14.437515246157592 12.641224882996115
Li 14.485258341459229 14.83109962046046 14.8118095889064
Li 11.443886881691297 14.796820531051731 15.343424684588204
Li 16.391679450807068 10.928874691344765 8.547362960577422
Li 14.29362408287487 12.437819208013874 9.889321029464305
Li 13.69123681516193 11.695182930389974 7.264951616511509
Li 8.997611467990398 14.581940053150232 11.297829705894816
Li 17.11010433424994 12.716271757845348 10.896343279864912
Li 9.518728165142848 14.978725007552779 8.500952833156806
Li 11.316672609110874 13.2445354557744 10.242059038803514
Li 8.368339586478005 17.153105116380402 10.487993401886255
Li 14.562811664481984 15.052876894374975 11.053130422831126
Li 9.873272400065511 16.27654129245042 13.220983963101117
Li 12.813125921007943 14.526918612469109 8.31160771139148
Li 12.92204087273888 17.11186033173557 13.21989086770723
Li 15.869598929469499 13.97956831516322 8.235338136018472
Li 11.406296502397483 16.261050065440553 10.594242068325027
