40
Energy = -54.76291111 eV
Li 6.767030265436756 11.273674409705585 11.46933132168551
Li 8.393583098756709 11.17130338169209 13.674317567350275
Li 8.419046794094353 13.64536510117947 11.896468230257014
Li 9.988850092902076 10.558661636060938 15.8848460761584
Li 10.090738797533279 13.332990460766801 14.256040053203986
Li 10.025379889150532 15.93625680299859 12.629306290378958
Li 7.498758454712081 9.951623267887657 9.072797159444756
Li 6.943774587821135 12.97643531830673 9.117590349884694
Li 11.982721217288136 12.48727440477723 16.267029965512027
Li 9.73031003228668 14.15817990115779 9.032541675378672
Li 12.054771502345941 15.385860170911146 14.53268255384621
Li 10.962190944776337 16.508822685220498 9.965248482518518
Li 8.598004609689388 8.914184653964343 11.722608891600709
Li 8.983609712001952 7.410938684799048 9.304152657657154
Li 10.126226329673095 8.223555058655087 14.049783844255911
Li 12.739771103566692 9.471552270035543 15.682904914491187
Li 9.681346420197968 11.377700561897452 10.486562090574376
Li 11.303284873750131 10.701439522954853 13.18371426269085
Li 11.346524951338019 13.604447281427387 11.452980372267069
Li 14.004624956253615 14.402307427719329 16.250312606369743
Li 8.928181181596548 11.899090556581978 7.3068645847114535
Li 12.833542235760484 7.903679937146627 13.275732410581217
Li 11.391682214496829 8.744551859083716 10.827012160958319
Li 10.344325202858466 9.521406085121146 8.00666070133008
Li 13.233580666287477 12.85277261329469 13.597688054714531
Li 14.848155551913445 11.579702727975931 15.880398771447384
Li 13.10206233709303 15.999049442399137 11.733111122658771
Li 13.016350027807754 11.205260686263635 10.941957961007576
Li 14.459677122390334 10.196723468361535 13.32694106766982
Li 11.676430681506252 12.060810712703287 8.450606104112323
Li 12.947037425669642 14.585979735664752 9.080365035941764
Li 16.759275384450245 13.882775295778474 15.724411654911105
Li 15.094966737037534 15.222698097886298 13.612369663856718
Li 14.450654482510059 8.449020730820136 10.911584108152251
Li 13.159960123351755 9.527329322716193 8.524849860492386
Li 16.269189984104525 12.475850287695673 13.3176841304191
Li 14.731765527666266 13.618677399294766 11.14612716548667
Li 14.650814776235093 12.109553322983214 8.56910757064327
Li 16.010176753938715 10.973362873294988 10.933029454141241
Li 16.031667254084105 9.383003564677153 8.500334725442187
