45
Energy = -69.99216413 eV
Li 14.85454873111226 9.511424955237175 14.515611320019426
Li 14.222564640831836 6.702318708779602 12.882388843401372
Li 16.63062773604914 11.49634176368476 12.833653087443345
Li 16.188323883868215 8.732247074248475 11.7412662751777
Li 15.86978046764752 12.242614275752942 15.73685792249324
Li 13.837857348456014 7.890249120278301 9.924867298442706
Li 12.077393158889551 8.070426829489625 14.861049817786464
Li 11.303922283296563 7.0650325271761 11.996858978008483
Li 12.692241693536117 11.358203415074156 16.159841533515834
Li 13.965329190141427 12.032351183645286 13.57662825936888
Li 13.293036928992786 9.207815262276934 12.188947182826185
Li 15.950018023496442 14.284142537176827 13.280375020834397
Li 14.75562925350466 11.014151965564848 10.534557608999378
Li 10.982851919635227 7.487403974006998 8.999614411754832
Li 14.104856879297047 16.512112317646057 12.444007159674387
Li 16.925839282218636 13.242958157705898 10.088936975076836
Li 9.423800638544764 11.118695061337863 15.7098895314492
Li 12.215738784081461 10.523425787939432 9.006226967534987
Li 8.959908579821162 8.832097696393065 13.388404719734393
Li 14.495586719828307 15.656658323533444 9.292675186691488
Li 11.432554529790162 10.371282085352025 13.728531717622964
Li 10.37395387126809 9.463053122187969 10.91756791854176
Li 8.411262455135008 7.468886017546217 10.529864027037645
Li 11.05331273932067 13.07916482484265 14.394557980693037
Li 14.434288807269844 13.63239697231555 11.02406637424222
Li 10.490996286882886 12.498801719844293 7.166305819458888
Li 14.20832867616814 12.876438411484617 8.06345335306533
Li 11.954655621372362 13.726672081560684 9.466842147379012
Li 9.156053433811142 11.670143820251075 12.635780645346726
Li 13.548500632469528 14.430480552574505 15.227695572088292
Li 11.9305206489168 11.87729111798423 11.514137290178667
Li 6.73524552476615 11.16866052809024 13.68475335995081
Li 12.04059565845388 15.343707633179047 7.305574307186312
Li 12.493735967062822 14.421533697829048 12.519581037023963
Li 7.373662727560587 10.314834139078275 10.73001157501713
Li 10.551117782804834 13.923566382723138 16.883673600819517
Li 7.3050251937229485 12.252874549167124 8.047924191207485
Li 9.031232929960948 9.726579518583799 8.262367575754737
Li 11.645582938106365 16.286459627009073 10.416960796788665
Li 10.881451893285462 15.954015864781015 14.230535728285984
Li 9.868271194725844 14.300003669780214 11.777160772383313
Li 9.477784038167922 12.11486483479762 9.771762609370228
Li 8.34896159796413 13.855679791575055 14.446818475959944
Li 9.232900327723723 14.767832500441495 8.789293958637296
Li 7.1311991887022534 13.266357581869956 11.183489036841417
