40
Energy = -62.41739778 eV
Li 13.848779211866983 11.288484647609113 15.743017688958316
Li 17.185797388718917 11.205613413106866 11.862128670005077
Li 16.494326466873854 12.69628453230251 14.702136912488573
Li 15.851475713536837 15.917341075763316 14.702081573766764
Li 14.676842977988036 14.126423691637992 16.996832757107015
Li 15.846015869902077 14.140687901588908 11.979862069056063
Li 14.79427514151722 12.04162282911601 9.8679123079404
Li 14.657971689175286 9.202170719627366 11.061691162360415
Li 15.696943066307051 9.350289888492295 14.05151699828344
Li 12.712209867292103 10.011222024776833 8.47415232864281
Li 13.549425855698967 16.206865553931276 12.486769612101169
Li 11.551609202360886 13.39353604405786 16.26970301256147
Li 14.61548010737164 11.556354403592344 12.814117742619617
Li 13.935631577011481 13.973029269145115 14.38208328395427
Li 12.948839268083027 13.581357463181613 11.68203187602334
Li 13.961656547178062 14.9433115526587 9.383671349524755
Li 12.635001921121564 16.226320925979167 15.528633302852256
Li 13.65427144511125 12.736031008146902 6.999356869486298
Li 12.713316116436218 9.340320755057762 13.529752187672955
Li 11.87749370477017 11.97851015546837 13.803814903740669
Li 11.09442876405585 14.658792533967937 13.639003720775005
Li 9.02695294046831 12.59024537208703 14.414198353129876
Li 11.874859489522507 12.764318271853975 9.144253834244564
Li 13.76515389586481 6.90891615272302 13.07438814790297
Li 9.320446737123136 15.577671313482037 15.52138991058569
Li 11.387158462341935 14.811216930506175 7.498828705584707
Li 12.297322719868445 10.821570160802295 11.158025398752486
Li 10.788271610016212 10.149418899233016 15.698209480941996
Li 10.58723919978779 17.20886693127836 13.190354782023267
Li 11.04966381114416 15.392629014994853 10.612183668867937
Li 10.607817402567008 11.862941889198552 6.8732065197056205
Li 13.263786209334025 8.151465731944322 15.857399561033349
Li 8.475437583716232 14.923226922431052 12.367242186202855
Li 11.632175298876735 8.119738498759027 11.020187762979774
Li 10.129034557001889 12.716982012499733 11.593119878548189
Li 8.948659755569278 13.520155923059377 9.186508104167764
Li 10.805736419637595 7.375564489963255 14.081593200042963
Li 9.784771569248463 10.552484553735686 9.647361381914
Li 7.47148722601718 11.901151318052161 11.618832213020555
Li 9.791620333981706 10.03621293508675 12.761538241121933
