46
Energy = -70.81777049 eV
Li 16.07739659131602 8.669347329083646 11.041814661309683
Li 14.360240883341126 8.561935466494463 13.72012104900715
Li 13.907508429464892 8.049814897246652 8.669617174750261
Li 13.170286195824799 6.905113814521089 11.502972103558474
Li 17.744279828252814 11.618557582908926 10.606117541124743
Li 16.31007683083768 10.839489358292077 13.232694859260732
Li 12.012533051551802 6.80369821563483 14.582095908310874
Li 14.699118055509281 10.462424456289284 16.032187873296667
Li 16.739442561762885 13.996036206265176 12.316461126022093
Li 13.574517489581117 9.675517246824201 10.851950861269946
Li 15.692827301487561 10.54208787547545 8.725109542109612
Li 12.005446102879914 9.707945527028263 15.681924594622494
Li 11.029894129279507 8.760560032029087 9.893234772986618
Li 10.042712651181077 6.648081178678082 12.153368649017708
Li 15.662633571400233 12.965784807130232 15.124171860277093
Li 12.878650318151276 11.444632763981959 8.64718251858564
Li 13.316891563715249 11.190860542172224 13.217029950816105
Li 15.0076022367434 12.085308729026975 11.063143530003526
Li 9.350140491951382 8.565119492514851 14.773662791836085
Li 14.034415612447368 13.996254861111023 13.085512168420284
Li 12.652574762014611 12.710213413617824 15.322620336411132
Li 11.470568894808693 8.872347744312059 12.84720945422124
Li 15.59979639828486 13.685311547401863 9.033786824324974
Li 12.70078579244534 13.809495006929557 10.560566626185395
Li 11.134804723451213 11.466667020949902 11.145443835544585
Li 14.076175947392088 15.348340948911778 15.699231323355056
Li 8.817456396579443 9.432598513906647 11.868581263069876
Li 11.117645079977457 13.88492530541688 13.076750560198679
Li 10.270897388413676 11.28563039439221 13.960925223947136
Li 13.31257510762746 13.021378911882495 17.835223011158824
Li 14.580478215901426 15.889584404557798 10.893203437966788
Li 10.471387067438972 13.22686265035375 8.726841744964418
Li 8.856850267042107 10.900417517360484 9.175116403058766
Li 12.919510195846348 15.069364382845206 8.127400643469011
Li 10.322015052892192 12.006601733135984 16.795192924840908
Li 12.489307158484774 16.368588687327367 13.255947017805578
Li 9.602858834157523 14.762789617357786 10.874799265401778
Li 8.424222120536648 12.384373683783226 11.664980739973466
Li 11.083427897968079 14.93320072743616 15.89005420261438
Li 8.637460769455917 13.659472485659952 14.479220605092161
Li 11.569883932270711 16.658930810373676 10.443115558176686
Li 7.50723857884591 14.07735270518208 9.186393802699497
Li 9.858581946317784 15.98355517152542 8.100839150433131
Li 9.473874809830944 16.41505289799308 13.257067354007624
Li 7.00983549274954 15.009898567510495 12.149205123750841
Li 8.277982446156527 17.123147837129558 10.402411611220584
