44
Energy = -67.98916842 eV
Li 6.756406330275544 12.582907916633259 13.082660351639054
Li 8.1489262399446 11.789824094693639 10.334122915629688
Li 8.474088632340509 11.10009511787798 15.199699362674297
Li 8.711772126171471 14.275089802942201 14.83237218012666
Li 9.597426042635982 12.367526513012269 13.002661972737837
Li 10.523049788830486 12.731477382234512 16.845187878693782
Li 8.620581555047005 14.612298134015614 11.624910432231978
Li 10.399801593846304 10.584643943124 8.285943840635834
Li 9.580106764129864 13.935618150793664 8.380069682695831
Li 11.428483011940573 10.599677244996421 14.802011103330136
Li 11.681631386415885 13.893097280298791 14.52999849345932
Li 10.639478505684036 16.512386460520894 13.752970066427556
Li 10.314111620187234 9.903778215770622 11.579987844554067
Li 12.810510877143283 11.05832580688714 17.447555924625497
Li 11.118651746757868 15.58474288886547 16.886919981230687
Li 10.279957607219698 17.017007316163234 10.646706866070208
Li 10.804451171963283 12.559509001965763 10.26896764169549
Li 13.050681629077543 8.937319741221364 12.472196380008988
Li 13.492778186389087 9.725568318064022 7.338971410729687
Li 12.254913945293668 13.47578844280002 19.302683962890303
Li 12.619291016923105 12.654924090319648 7.871669221130529
Li 12.360187330408776 11.86429012303131 12.526722884870411
Li 13.506068475933068 13.819124565222204 16.81995384149828
Li 13.248397311454031 16.84907424678378 11.759675145868902
Li 12.012631027634571 7.962172599204506 9.519875100083796
Li 12.253828239643118 15.317098774713354 9.177379614797362
Li 15.015862114490849 10.94696569909317 12.074158685397963
Li 14.390536634681128 9.444785171048128 15.244624889569431
Li 15.642605146530794 11.772099481403542 17.22472913469706
Li 13.577990224679807 16.21364503383316 14.882829968547837
Li 16.068065667215595 8.447819935306438 12.857333915831568
Li 15.28635127884696 15.32261901518215 9.968101250978066
Li 14.118963365050158 12.054197089892202 14.754058900915531
Li 11.42412521712677 14.705448614235785 11.828741640556258
Li 12.832675232888155 10.525795270917873 9.901775164018808
Li 16.142116314010316 16.406009369645574 12.85649548808217
Li 16.09654270588275 14.150095946344415 15.08401003225758
Li 17.590727958971545 10.47284922828754 11.154379543916717
Li 15.020077074733578 8.817639389417433 9.966939687509605
Li 16.880071287576275 11.156293204873966 14.22441165144345
Li 15.473572030985238 11.799829865444009 9.070680610402217
Li 14.213499548020728 14.335707513678413 12.968078283188209
Li 13.675651109717972 13.193828341604602 10.557673618882296
Li 16.617873447175363 13.315371733071261 11.890417239162138
