40
Energy = -62.49788497 eV
Li 13.78793828163647 9.79559930674083 6.796487332386331
Li 15.916609434210137 10.53754984519497 9.211261511932445
Li 16.000107162730206 14.839161271769793 13.032933468551068
Li 16.089697007203814 13.049225506860969 15.606426559022665
Li 14.52045437815262 12.775423345574298 7.450368029044759
Li 13.103247684688474 11.160038827312722 9.03762877923966
Li 14.950111236140561 13.152841642750133 10.56316121733559
Li 16.811580312191314 11.799311038997766 12.63932566063732
Li 12.25980191358509 14.205979903513441 9.131857940456221
Li 13.632853708997736 15.229763856909873 15.063939328434099
Li 13.020432255343364 15.27641552189342 12.009467189939787
Li 10.973496254512634 9.276138399751206 8.281790375169434
Li 14.295112547923019 12.851228428362443 13.580824453844322
Li 10.245557193199046 12.013027360397444 9.523507877639226
Li 10.86410632008795 16.859103777867546 10.238567204221384
Li 13.038270189875401 12.208636305604362 16.160937582725698
Li 11.479568563971153 12.189766119936346 6.887293963645118
Li 13.595950976025435 8.29462650856879 9.647350984663909
Li 12.358486605675344 12.553189195557056 11.458136515524306
Li 11.414389755841214 13.674762487744724 13.976712498588597
Li 10.492104733232475 16.414849639141835 13.35108734123059
Li 10.681185578811267 7.208778232464227 10.883197893335167
Li 9.256525577142913 14.647336217254207 8.629636790331256
Li 14.919820215752667 10.179894184696234 14.732827241412323
Li 8.393793605132972 13.905626433170047 13.667903198856658
Li 8.7073502274179 9.680352901818988 10.692799244335525
Li 10.147299073536146 14.461302347229363 11.32211166398993
Li 14.390781797491124 10.428622376189495 11.714804606823543
Li 12.301703795041721 10.809650778692166 13.745887282134294
Li 13.009331171028732 8.051468235905517 12.95959343546446
Li 11.590796648249128 9.809449986802036 11.05185477036317
Li 7.993830783463206 16.069145845093004 11.276508793826503
Li 7.534894482091478 10.584137163869602 13.469732871652635
Li 11.995179433880232 9.055070176042097 15.858674332119907
Li 10.143564023768922 9.024841035400083 13.35858900477847
Li 9.826966632233784 11.801419955301448 12.4025809848942
Li 7.982858218404253 7.460433069004989 12.791943851819092
Li 7.6649857150008245 12.863467947667969 10.892313833450137
Li 8.736528284385177 8.521216009158906 15.64207231934689
Li 9.931551190713005 11.40394423540187 15.326921174636846
