49
Energy = -76.42041952 eV
Li 15.260013420999558 16.772419204013275 16.853886931430477
Li 16.432805202375324 14.701570462170174 14.829922351436874
Li 12.549200484552184 17.83162983733891 15.675852155931077
Li 12.582180147082655 15.346552152029572 17.918816189618177
Li 14.975837520257327 13.563930834877446 17.32828474668568
Li 14.929570207221392 17.19515533834973 13.583945203541145
Li 16.984544648933923 11.742385477200589 15.713821220655182
Li 12.00834171609075 16.43933868010102 12.863395895671898
Li 13.59596722441526 15.314582221060165 15.204282726303024
Li 8.965300564793035 15.550818203030115 12.926290784070552
Li 19.039822045580486 13.27998312617358 13.918827293661435
Li 12.674166228505056 12.279477449513587 18.997277147369672
Li 10.749526781901421 15.367565882970633 15.412083385305163
Li 10.043106245955826 13.346495400272879 17.717091449772337
Li 14.394078238358908 12.520115772877585 14.57484821699246
Li 14.033068867963351 10.495549386313487 16.6830825803681
Li 17.193101908468062 15.173638588800628 11.91324615195742
Li 10.200468020333632 16.975327850195836 10.370645277261001
Li 14.463583764687117 14.526688875166483 12.449882301702868
Li 12.274300157713201 12.899235395164055 16.2956138727877
Li 11.959801809695294 13.561874898887433 13.300499153462074
Li 7.924583226818394 14.894582201804726 9.94480663695205
Li 18.38505957543572 10.330125302160058 13.300221864600227
Li 8.295472110841073 12.630926001701361 12.028946315429769
Li 13.153321343891317 15.579590064789409 10.11714196442997
Li 16.615616370191443 12.432933398685474 12.8458750548494
Li 18.54336603747496 12.43405146354635 10.968059361902931
Li 10.953266326535836 10.386249129022318 16.758679645491288
Li 9.795051208300036 12.664625260512747 14.6951128463287
Li 10.455436863348039 14.322377363909078 11.019656441451191
Li 12.20843056919665 10.61249905655889 14.147110993549207
Li 15.571377495434463 13.285484683328061 10.023009789636053
Li 13.839227750984614 11.758093584762184 11.77935982380662
Li 10.722684908855223 14.766166467608327 8.157985822232286
Li 10.79621688123593 11.288036993991762 11.791122107196992
Li 13.72430056843042 13.875170852478055 7.507489359568457
Li 12.3684076787386 12.8398611252357 9.651283383048655
Li 15.179107029387811 9.828864233952109 13.876410578341781
Li 12.323630653051747 8.061984450803433 14.837294283149287
Li 9.366934597057268 9.840320173460887 14.096858130624533
Li 10.713389153749336 8.339959902811168 12.11607069197355
Li 16.250019055101752 10.309529152666762 10.984092881395506
Li 9.369008020621104 12.275500919875002 9.159835875004584
Li 14.092129178569971 10.904597583898214 8.71966923869932
Li 8.486751735605365 9.862442013290227 10.631195493620957
Li 11.422830575091456 11.877629167134286 7.061439416057962
Li 13.40025323806828 9.102535901743115 11.548241129514034
Li 11.21425338788658 9.917488797842474 9.335538559442085
Li 8.89423244583849 9.964338480467529 7.4749313720271315
