47
Energy = -72.68768489 eV
Li 8.61321249814898 7.7873225919713445 14.364529172756866
Li 10.862407957997862 7.124529953125906 12.201081030768977
Li 11.548965392276013 7.336494950250914 15.27619135300969
Li 8.749690717740334 9.340074975291602 11.54864490167915
Li 10.01699876024808 9.787391393477956 16.546211810568312
Li 7.192285284793628 11.907773252242102 11.55342387653808
Li 8.135914172092734 10.824586990941185 14.202460149706216
Li 13.365974443563296 8.495263615225769 13.067711173599742
Li 13.258548949164858 7.942197414780003 10.145299073168708
Li 10.65273455512015 9.531233552704343 13.740594618318765
Li 11.459101175186571 9.937715720676845 10.95106770355526
Li 12.958508111746974 10.033325639249105 15.614811917711878
Li 9.45235873310836 11.822396689139813 9.265959781536617
Li 12.27198767575327 12.399795965469293 17.227054903933094
Li 14.543552759494256 10.451407716946774 11.34801555336938
Li 8.129095792475262 14.543284406289818 10.888109625910438
Li 15.755853163345407 10.284442625949449 14.142259100846593
Li 9.998754503743312 12.369718933027485 12.070732880614784
Li 8.328722680174971 13.886968580876516 13.923447036605602
Li 10.624359222683266 12.214280892770084 14.946035912605826
Li 16.01529722128172 8.094672113572733 11.532418308462056
Li 15.207188159061314 9.901460982059024 8.828733656883685
Li 12.00082531437523 10.015299464986459 7.95362772478767
Li 15.309487221547869 11.288382535493675 17.28844076992132
Li 12.736758674290796 12.079603850670484 9.580625878851352
Li 10.78249175523202 14.482196717324967 9.794170702775679
Li 17.332870621511947 10.90407068140855 11.330417850911422
Li 13.989595566993696 14.859989593032811 16.614110244437537
Li 10.577357574509852 15.019647588300113 16.091745876662277
Li 13.158322091441528 14.083441782689315 11.563481990928008
Li 8.659459615905254 14.755282843992198 7.9211879109836865
Li 11.280995658000684 13.251471806898639 7.2105270820481
Li 12.65742045830861 11.608028313959117 12.953620803315506
Li 14.105049867570147 12.22224898648257 7.063708716695014
Li 16.820801686872414 13.20821728089536 15.207938487440352
Li 9.595863828781903 17.048176079086026 10.189376285424622
Li 12.338754976675592 14.241805425021914 14.292671793614677
Li 14.239013542039517 12.506220732638138 15.109949622310163
Li 10.4645850574001 15.387865395354572 12.653392853482492
Li 15.553679005419204 12.792506925440481 9.667619894212958
Li 15.60380631726186 15.607620208566733 10.83428370074086
Li 12.652443984312182 16.744367107558325 10.94683033518531
Li 11.23995160407686 16.34186833851552 7.790046372199512
Li 14.822334733907386 15.387539388503294 13.733416248701644
Li 12.3596261270834 17.021241160648387 14.291129445684211
Li 13.635313566096341 14.853845294204506 8.6486881542182
Li 15.476912334887102 12.871044602513319 12.56318815024978
