42
Energy = -64.54261668 eV
Li 11.145675731102143 11.315137447737944 7.8213679773945035
Li 8.911259168986263 9.224327586594907 8.681648433181667
Li 13.92525745332634 13.402741824650525 8.303207555415629
Li 10.43480794006073 14.754401107457083 9.221694460992033
Li 12.121321489563838 17.40852362136173 8.892119971329372
Li 11.870506714312477 12.49708511487839 10.127857932072791
Li 9.041461393235718 12.114600699537336 10.180008348304366
Li 11.88670281685822 8.191991500790236 8.597571503290876
Li 10.837506698403535 9.870658184554053 10.548819019174486
Li 14.342445585901705 12.863513096572207 11.24993005228887
Li 11.045141179105102 13.733084392013025 12.282887211714932
Li 13.013171918750757 15.207685032505815 10.377977781103604
Li 8.40798155129565 14.23661256149615 12.362139586746586
Li 10.823340907451605 16.56948794054966 11.671480808488433
Li 13.803970406272706 17.516071817916394 11.701358435083995
Li 13.767849280067743 10.456183950718021 9.621655828486148
Li 12.432693679936225 11.094019596971407 12.547189303692852
Li 9.609529625399873 11.480350192685485 13.059079510237812
Li 10.061485004690024 7.255853238339917 10.82194256883956
Li 8.070155196422384 9.551581414154795 11.654766913166982
Li 16.57551606019959 11.643511951438184 9.97779849618398
Li 10.625604788933456 8.932909937328825 13.48531120668179
Li 15.943983181934515 14.918154737530212 12.089346784618698
Li 10.405124794191591 15.1645016292152 14.68200558946288
Li 13.072046867890691 8.298807626240274 11.658726012993187
Li 15.217553651601756 16.67655112472887 14.460904221725544
Li 11.758339657386065 12.674281524134575 14.903434896561839
Li 15.231241825182968 10.307841403723176 12.272153857225204
Li 14.4867940425273 12.528236132451353 14.045634708028878
Li 8.761759559625759 12.78531118684097 15.32374883846348
Li 17.226799350563606 12.24900428325534 12.78830274846196
Li 13.25965645449199 15.036661281722962 13.258650321175065
Li 7.941851666981461 9.86129983731778 14.816105833293834
Li 13.459870792660396 9.654004016273896 14.652998808987718
Li 12.28207611751749 17.456080037525307 14.345185810260821
Li 10.890371089511879 13.30522451350669 17.49065102894495
Li 16.439156303120356 10.509075795169071 14.966995937854769
Li 17.779870440465448 9.338300450554463 12.075039047319246
Li 13.315500297095754 14.854606841178457 16.10098383258828
Li 16.342430185505023 13.890929029578858 15.310773442652575
Li 10.715402380296933 10.499111519467501 16.09420747176068
Li 13.810762237898633 11.83558920093216 16.79193266980872
