48
Energy = -71.34342578 eV
Li 18.72336174543232 11.926065767734329 9.892323347879314
Li 16.1522418228716 13.233947829050221 10.080290763496965
Li 17.4650500404686 12.23564466539497 12.582517989369785
Li 16.269099590658506 10.429439419599799 9.24363708751802
Li 14.289159698737718 15.385399854250863 10.14286028397905
Li 18.091518482256962 9.605771769230685 11.500391028241543
Li 15.070295347085146 13.809868458328445 12.69134254229619
Li 14.071122873411635 12.108385122919003 8.17154279578054
Li 12.728082741785812 18.00583484398583 10.695105700830867
Li 14.962782535965344 10.893326938677314 11.937967570838762
Li 16.587138302418776 9.613327438741708 13.956947022886927
Li 15.657485980079386 8.151138029972177 11.075881351512901
Li 12.01649815545423 14.024375127922413 8.416981338864948
Li 13.81417513156959 16.352218909428306 12.915708662891838
Li 11.289038353125436 16.781374659530037 8.46357422665476
Li 13.549777607208211 9.626425200132191 9.647792125982475
Li 13.005467869888898 12.793677407833794 10.974605010729272
Li 13.93988448551003 8.565664939750981 13.383258096406282
Li 15.976150004216507 12.27121590201793 15.080075745118457
Li 9.683983256319339 17.676253162843814 10.760744890722002
Li 11.165043211681063 17.433704603381404 13.27824442042308
Li 11.300788739334815 11.282879704189883 9.105281444534203
Li 12.96479179694721 17.028482360334536 15.554215603120944
Li 11.558496206348257 15.358958473273175 11.178411490728688
Li 14.426936110118787 14.613791163721555 15.377654789853299
Li 10.103823493565242 12.900675682688105 11.426523603546373
Li 7.461159889236855 12.863618046604989 9.928389287138643
Li 11.592772180091579 14.454909547245434 14.050709810996802
Li 11.774865737495064 10.40173495284798 12.049492835932808
Li 9.168559867829597 15.051342300809466 9.525968831305672
Li 10.828310747838925 8.46368377054398 10.033472808219187
Li 10.135937452509268 16.39575964631961 15.786281632648196
Li 9.02194828658161 15.53474310279478 12.657782611901604
Li 13.826025017851578 12.384477987201928 17.229271624020356
Li 13.127914284341795 6.958225218160097 10.893388034877903
Li 13.125192639585476 12.014228417703748 14.118043448609134
Li 12.304216809000513 14.81571505027247 17.334805048039367
Li 11.475557937794122 7.160332747581361 13.22703710674978
Li 9.496548174936398 11.43671416333772 13.787272861336168
Li 14.357528566738473 9.841803633699318 15.971469924680148
Li 12.767022828761778 7.439014113958604 15.815883890164196
Li 8.783029435880893 10.426884157794074 10.294305111430448
Li 7.390615822865766 13.140043989738698 12.72025057074502
Li 9.347731052205317 8.83566168586724 12.658937950580365
Li 8.68956552588461 13.907445621420665 15.073619973328805
Li 11.036314564171185 12.34498681582929 16.14721144069386
Li 9.500116140716992 14.358873395280103 17.7871766918622
Li 11.402499420225073 9.695618320109512 14.972843114890756
