42
Energy = -64.6998907 eV
Li 16.739087776646315 12.69484686287065 10.625711945525167
Li 14.37634318310127 11.076233473178526 8.537980924150755
Li 16.907533607075496 11.20396172324655 13.501262877334922
Li 15.643362278439302 15.57780247147228 11.200464055190915
Li 14.678758091986317 10.829781571146176 11.515205551787973
Li 13.803750913417646 13.325566070186127 10.347940576880026
Li 17.553231292127993 14.256640058300638 13.328018122581714
Li 15.108183872295967 8.47583014341701 13.159457480288026
Li 14.116408532091365 11.025379917413455 14.521492337865114
Li 13.647145904157071 8.44363263238778 10.125961854001359
Li 11.877563673485684 10.905263089347864 10.173368497903637
Li 11.872831545829236 13.010492979606079 8.099294126105805
Li 15.692846188086461 13.207990021447733 15.801656204114012
Li 12.971386991937077 15.333999938819483 12.46128126841561
Li 13.706817051415014 17.916898973500764 11.99949100854181
Li 12.85823912675332 15.978799377879302 9.503661468503868
Li 15.029402478830786 13.320687508238548 12.993948002241124
Li 9.780221584126341 15.35778446561895 8.637116456185488
Li 12.602921644251172 6.666856476345591 12.764152431116244
Li 12.811947008265644 8.537038650623327 15.446520370488281
Li 15.11375540186322 15.95568523097442 14.264729639280322
Li 11.5364816514496 9.721589663715154 7.803340622740655
Li 10.721149443433902 16.942835392842586 11.486662066799212
Li 12.238616424432674 17.08523119913484 14.610881511449273
Li 9.304567581017817 12.363683416312194 9.599258660249943
Li 12.437709503643324 9.389192307075705 12.681696705804702
Li 10.7335450615046 7.921891580007465 10.653128471833332
Li 10.125208610419186 8.113154912634101 13.83565269646404
Li 9.705657020727102 10.27732790116783 11.914524526291244
Li 12.767283001072032 13.829415520930322 15.035292707159783
Li 12.800817768691427 11.61346406500991 17.060837746950547
Li 10.968006411964415 14.115652432568957 10.792089736221666
Li 12.188465368278663 12.375157894842358 12.602825608184363
Li 10.377778394733513 15.039722363933448 13.703645717432131
Li 8.691597478272604 9.552986113368252 9.273195421736217
Li 7.706754445589694 8.396562566460771 11.972322076031993
Li 8.23711806207102 14.749267927468875 11.292801586435722
Li 11.074135487900765 10.905890406577166 14.790389378446436
Li 9.90412654291346 13.122025925647812 16.041781089501868
Li 9.34186958751936 12.671130975279882 13.0154800997785
Li 7.122964026889038 11.366497102609499 11.48609117395469
Li 8.095758049508996 10.484013877464632 14.453169632266219
