42
Energy = -65.03158197 eV
Li 12.917728532950923 16.496118823221103 8.078980254236694
Li 15.098118502408184 8.612232989414922 13.651108985713961
Li 12.365452593114483 9.956591148160784 13.586991689934552
Li 17.06053605302404 10.414157003243938 11.680626072504193
Li 12.354159953950397 11.550336488048034 11.144032150912409
Li 10.430405688215538 13.929007821150371 10.850742591475639
Li 8.138776020028027 13.759091325608034 8.973368094606819
Li 13.50331285252691 13.902042397574881 12.243208758695346
Li 11.229056728215618 15.36120028287424 13.375404711234445
Li 7.301324548811359 9.20060832900966 12.345567469563008
Li 15.19023674206933 13.469642504724613 15.36668154197748
Li 12.605520778927842 16.543677802180227 11.100072407251478
Li 14.605442414613758 13.96422725694626 7.3636051000068745
Li 10.509178007235393 12.355694541476478 13.154608417920768
Li 10.985744206625915 10.698748194117286 15.908141997673361
Li 10.26300741373899 11.74698500810382 9.231625126807925
Li 10.111883709990883 16.189196750036306 9.4459732559053
Li 12.636975017237402 12.867354748694396 14.749136537395755
Li 12.82985664368323 14.12101734090951 9.479268285792847
Li 14.125463916739559 10.562272632333078 15.85027849834425
Li 8.387984931655764 14.47399328462367 12.858812992857203
Li 12.550068483630934 7.873603583298016 15.509792362791424
Li 14.277329659008105 9.465897328155942 10.786583487797085
Li 14.596997942990015 15.970427118527828 13.424579280353464
Li 12.265230668356201 7.514314650853611 12.410677086101538
Li 16.980568523683612 11.005929366364828 14.642376317612035
Li 9.374334846761272 7.261837665327461 11.197555053719851
Li 9.860166850791225 8.423365375385417 14.139504449504269
Li 9.920474038823517 9.918210987929806 11.783546624862648
Li 15.177280300427494 12.377894269866749 10.130149716618696
Li 8.3401739997814 11.353921450906094 14.318717997001317
Li 15.267050832279814 15.414107408252221 10.269202649148552
Li 10.027205723992159 13.779345884606155 15.737580629081975
Li 8.101493677650057 11.981900209602317 11.289304045858861
Li 14.792238674385825 11.424703009705302 13.054545682819825
Li 12.730919943364544 15.463980461958297 15.897541194253781
Li 11.466320395388703 8.977674898490957 9.69632822984191
Li 12.683357965437896 12.900242241050387 17.51139449028619
Li 13.06642419233317 11.37600924700215 8.288000969128897
Li 16.543611692628424 13.553662783690145 12.550619247856485
Li 8.240987961466153 9.680168242389511 9.388600350160527
Li 11.025208210336697 14.076129187241673 7.480387334698665
