45
Energy = -69.5111506 eV
Li 13.733394407099539 14.863361701356471 16.412486324656765
Li 14.317088895622438 12.741563420595044 14.37188711659359
Li 13.389223238918905 11.71604953586127 16.92714993288932
Li 16.014737464305142 12.120168878942128 11.879337496279723
Li 11.448945216635318 14.012250824456418 18.28237335997509
Li 15.164039956975273 9.863217998193123 14.427812754140765
Li 15.484012672238087 15.066472467407621 12.987967761147114
Li 12.667059470257756 15.058028348303402 13.807836028747605
Li 16.65048247870126 9.321683032352826 11.543339063475942
Li 10.649725329663003 16.10045625285735 15.846976265426013
Li 13.435200177159963 13.21764822366827 11.702448505275191
Li 11.20668017488752 13.462228443177517 15.62953083387834
Li 12.078025585199958 11.081902861475129 14.360941372820083
Li 14.539713061371287 7.3524753947987 12.255877600633438
Li 10.488074652701306 11.21299329538969 17.24125379238815
Li 16.506410096617497 11.212312542043351 8.938831179817624
Li 15.414878389489216 14.197467041097505 9.739077806275743
Li 12.448003302397787 8.287569875318967 14.12884069582822
Li 8.726373542837825 13.739310185209709 16.99710035756858
Li 13.796952907143307 10.183527037482998 12.045486253743174
Li 13.251266414175236 15.982087807176967 10.965031580073791
Li 10.497218690913078 15.977787045645083 12.344327023244164
Li 15.07833083263017 13.12544909829255 6.87283320260741
Li 9.767640344517817 8.793203785813976 15.43739861239179
Li 8.576267284590543 14.395214093848278 13.940294013053512
Li 13.799509951804627 11.829981819505848 9.147497495596346
Li 9.801789803339888 6.969784439841107 12.814664175646724
Li 14.501743007037637 8.978822761320384 9.506762242543546
Li 13.045481719735387 15.121425180306138 7.911026694134253
Li 10.216899788653615 9.698407159949545 12.80418168915037
Li 11.944691294941164 8.161616503075528 11.001776294947087
Li 11.367628191162092 13.976058190963712 9.823646543287671
Li 10.713748065158864 16.755473526774875 9.405762605809365
Li 8.966071525402379 11.56116432862556 14.722537591773229
Li 14.367417870692721 10.193930710373978 6.769415267800713
Li 11.439836084310892 11.117012898426578 10.696734280116026
Li 10.720090431002664 13.080363186251509 12.68894022157814
Li 12.057802273854655 12.397327783720376 7.044384090634882
Li 7.560558673071625 9.142730842155558 13.203476452644805
Li 11.721719776059325 9.612655736463385 8.331519695778399
Li 8.717356807523117 14.5195155370035 10.501625844795385
Li 9.09628409473869 9.021347825743888 10.323938111404303
Li 9.934357977440639 14.617324204916782 7.4384432612906215
Li 8.434788216695726 11.771051852671373 11.715030324852112
Li 9.542578448374329 11.87055986733264 8.819801193275524
