45
Energy = -70.02024049 eV
Li 13.154883923509638 16.41045979171868 11.054591817459452
Li 15.16403706124594 14.301455924583491 12.020248418824576
Li 15.618269942078605 14.890611650696595 14.955470986172019
Li 11.977531235826286 13.23274595547293 7.0520687283752785
Li 14.027546951916337 14.040586162062656 9.236336752555031
Li 16.356399682205208 11.979470782801034 13.445599922660314
Li 12.682145052514825 15.706135811957415 13.920240295168313
Li 14.512014234090067 11.350923578867976 7.510897801855712
Li 10.925735290570431 14.845049882457472 9.657533790117585
Li 16.10086400435622 11.879836175696283 10.155360128284087
Li 10.234488973412905 17.21432596667252 12.15088006580153
Li 13.695828753671709 12.994843192666737 14.32982442623486
Li 12.974509433230507 14.482581523444017 16.731256198590938
Li 11.72512662950765 10.083736568479992 7.52765189035558
Li 15.27527424513463 12.137478846340965 16.410855823513618
Li 12.429611037473114 13.738078257777792 11.77564308089314
Li 16.739418060694945 9.276911545150304 8.572869785496517
Li 13.984982604940946 11.342802971349009 11.803570439758941
Li 9.31890486569849 12.476129595502929 8.402287376798037
Li 12.194290809129956 11.881034715400336 9.491787226616234
Li 10.183660454678517 16.335717367357645 15.579612358770047
Li 14.253837012491545 8.25934435779146 7.045508840412896
Li 10.119308000105136 14.723131207850395 12.860463077234918
Li 14.133731537925923 10.038026203335049 14.275688888528522
Li 7.77090757522038 15.964294117981396 13.600640219501607
Li 10.679690513243822 13.634923491502501 15.285513217222466
Li 14.15729122624287 9.464676770198452 9.546163860628944
Li 15.109974876203776 6.8470134677381 9.673911775421564
Li 8.116451357197594 14.65663199197165 10.745659367801624
Li 12.22251979337153 11.400935194082424 16.378314466401925
Li 11.261214050609704 11.663821443762767 13.452273568713263
Li 16.083034711682007 9.245982360134041 11.702770749077464
Li 12.086990033334686 7.566180607346509 9.271706899187048
Li 11.644781392806308 9.726415015003951 11.336342706997437
Li 10.284324340466107 13.504574199652378 17.97851144421506
Li 8.090199702345869 12.838802949692326 13.364567361568284
Li 8.017379183569094 14.147934516449363 16.08207237358843
Li 9.462685741700955 9.620124806316879 9.663746233599271
Li 9.811658085470965 12.292432064598193 11.092872505650163
Li 11.306142564920181 8.999947973062774 14.289945233103557
Li 13.421633790197522 7.797481993814952 12.116985913723882
Li 9.251850146564587 11.220895147471893 15.71058356268894
Li 7.162594109142044 11.622737422944368 10.620905384296673
Li 8.902291240355959 9.971072590440775 12.682307032570943
Li 10.301131412340396 7.292319474344904 11.762190750457899
