43
Energy = -66.19257729 eV
Li 16.391634352180496 14.322886062366816 15.071764393667086
Li 16.23370800554771 14.77015246411787 11.968191209192272
Li 17.142210406614325 11.892851093342749 13.040614333097036
Li 15.522158743180016 11.306466130251998 15.596736766962517
Li 13.84628710605004 15.82386056565815 13.71326291130397
Li 13.417911479071048 13.682100347170248 16.024794338096406
Li 15.157455338057432 12.123329023636725 10.575219006182198
Li 14.571297741679757 13.097242411117746 13.452601387852697
Li 13.261737445588643 14.426279965082736 11.132818305068705
Li 16.71664683900632 9.408376841548694 11.045609977778009
Li 16.87607407048541 8.862463350803868 14.105560940222562
Li 12.640262662313026 11.16694244489265 14.735951736600647
Li 11.635948472834606 13.733200072651844 13.60803383923914
Li 12.17612160737206 12.202928997617748 8.731071018385302
Li 10.957729620528587 16.030467354871853 12.14852070881625
Li 13.63807139887157 9.430067825834175 10.165740245234781
Li 12.63210563979977 11.713863850907499 11.751341307357002
Li 14.604379586045104 7.403129898099997 12.22680433416097
Li 14.786101697597246 10.16192163509304 12.906154045809723
Li 9.517759371740778 13.907369996731884 7.7138042485944585
Li 11.463691380931971 15.522165538532658 9.166177545500132
Li 13.907198709290519 8.556374651227612 15.172348547713682
Li 10.757869652849584 10.082236655274317 10.522495013477931
Li 10.417129996764208 11.554889281168027 5.976182347403085
Li 9.115107984247418 11.181157129913393 8.377431291219748
Li 11.561564073915957 7.237714419428694 10.511525749331893
Li 10.284006281550912 13.239532162883513 10.633280420295057
Li 10.19909433012722 11.176144240453523 13.236809814535738
Li 7.32463168748281 12.089418512033294 6.373412029997992
Li 8.481640159321499 15.366525080299724 10.426074102495622
Li 12.080181941996585 8.872616418750349 12.854677205834102
Li 10.061990693085814 12.473668536670502 15.774029172007909
Li 7.130094540409286 13.12697408692486 9.222808242478003
Li 8.674783840050067 13.66228209635249 13.082764232232284
Li 11.308726005709296 9.191213419410687 7.919502846356684
Li 10.370994715651133 9.304487898972045 15.37988148375719
Li 8.392209464127017 9.258429574583031 6.591769188519357
Li 8.76767959405262 8.414088734828395 9.519760248152858
Li 8.15344710099894 11.124936733099114 11.188030646031159
Li 6.366576844344034 10.34308091809564 8.897821133691568
Li 6.017649644630644 12.760975450649385 11.887441944674478
Li 9.15846395661886 8.509867783928703 12.594498656147719
Li 7.6696810178631845 10.883423929741715 14.237035687799096
