44
Energy = -67.48358843 eV
Li 14.705424961797245 16.1148912462 11.664152590805308
Li 11.690449355446377 15.557428034813505 15.149036891806656
Li 11.675461224539978 16.55524473726637 12.231622666214536
Li 13.49104384888043 14.148626008867698 13.42793188974559
Li 11.214596085047583 13.702458973568318 17.58148259721642
Li 14.059239732836874 14.046609587787303 16.334862327363776
Li 9.736829465356406 15.451848738419404 10.015176636844503
Li 15.492153228415697 13.420175387927994 11.132751055753639
Li 12.670201430519 16.78641545844533 9.265165369148098
Li 9.0652355500001 14.026189675524284 15.038666171570162
Li 10.784444375099156 13.88295504168658 12.736205908110207
Li 16.19065643580596 14.174144518274117 13.983760335784163
Li 14.59758129705102 14.266375692913055 8.492815451037416
Li 13.230904428881383 11.39996032063698 17.52546307095396
Li 8.182621883910096 13.387712423725722 12.081022006239651
Li 12.581428702173625 14.332157559491657 10.546366128196311
Li 8.867742912015304 14.213788849529342 6.981539675405695
Li 11.602280538236435 12.432695755284122 15.167836731697754
Li 13.641784588664727 11.658558597765985 12.08760016899016
Li 9.188659105727337 11.648295084627103 16.864634510588022
Li 9.755664259165599 12.770864855281802 9.266023552451374
Li 7.039108868715168 13.582544889140614 9.319075332875586
Li 11.712285349450822 14.463565645631336 7.752303720381814
Li 11.272391683421475 9.728642975775676 16.32910012826702
Li 10.907590307418541 11.489327861105414 11.48578465360698
Li 16.70031625000159 11.296999540860819 12.826236006915517
Li 12.813194914276778 11.89530121814163 9.19943570457486
Li 14.53657793017193 11.463056913815384 14.827691724917763
Li 12.076395599839454 9.817664522191702 13.63313441196956
Li 8.057222156878693 10.802259726228312 10.6632541802011
Li 9.23431521701706 10.969304200904274 13.868334864064977
Li 8.125103254747728 11.258400639919747 7.5515962388689815
Li 11.108626909080941 11.745936099130912 6.761996828460584
Li 10.26126273378477 7.764819982425499 14.513683008910396
Li 15.373318488559613 10.512569515293858 9.97804862421446
Li 12.786558868564152 9.246893630297242 10.67065016032881
Li 13.80123077076963 8.50142046856338 15.464599851089368
Li 10.501384754537211 9.852223641781201 8.961690839195695
Li 14.89286659927444 9.061811015701862 12.679971630841615
Li 13.211796965261136 9.190589758835655 7.855727948372705
Li 10.067907907705495 8.683528498494407 11.69484960638308
Li 12.612175722576023 7.113097779804868 12.579906324869148
Li 14.690510818835945 7.379510129500627 10.092859374189924
Li 11.624178620702715 6.999856772191734 9.57434632708453
