48
Energy = -74.79579546 eV
Li 11.163542930639853 8.679834389424366 15.286902958789769
Li 12.571985043780964 10.233828437056282 17.77100235412748
Li 8.988388563125106 14.380475066775874 17.35442382467731
Li 9.69954227753495 11.25266109954193 16.995045133994832
Li 14.234989824740236 9.163030741401629 15.275428717252977
Li 7.386366132018016 12.86520348590148 15.215265242948055
Li 11.968900196896586 13.344785610956116 17.432520151188903
Li 12.872258804552235 6.845592141137746 13.36939583486068
Li 10.437462239225733 8.590951878619569 12.135062046056422
Li 9.090571667387445 10.636937807749884 14.058008980000752
Li 11.100514447376474 16.11704689786408 16.144621036003258
Li 12.886222929092567 9.552705204953552 12.940368704465714
Li 11.06153694671116 11.591678460927708 12.37534560152312
Li 8.76492366527823 15.608873605936488 14.329802397823212
Li 14.578682869297 12.245518047730323 16.116066933670673
Li 10.292186435528066 13.401800450945156 15.044628385355791
Li 6.1631285392624395 14.50673622648148 12.893111887273424
Li 12.073676924134126 11.285870027107348 15.251473396073294
Li 15.689539770427363 8.925191639324893 9.1327351624065
Li 16.065642081214428 14.264053376656973 14.060733756148286
Li 12.98232566603826 8.056967474566404 10.387545884721032
Li 15.452682651908058 8.322283904627017 12.221950113674753
Li 8.725835819367097 10.769064776957206 10.784881616364862
Li 6.290467414256894 11.430717802792383 12.670031794916211
Li 8.493828118080803 13.11928558737821 12.522004897140885
Li 15.96763068591241 11.081156863373261 13.460769720903041
Li 14.393182626123458 10.683211144345172 10.887326889668183
Li 6.957169738857103 13.29316754234642 10.193210469356297
Li 11.703666899202966 10.711771737633919 9.69977177344376
Li 17.36612380059198 10.989100775640164 10.563054835417361
Li 13.128124467327018 14.640304390518924 14.828163052792599
Li 13.836958462289818 10.499594270653347 7.368716514781577
Li 11.204609072524775 14.404448166341986 12.531833137574099
Li 11.528716174206421 17.004951039581794 13.121039168740761
Li 10.100007341876976 13.288894933590331 9.899539037413106
Li 8.883019229750381 15.690062564220677 11.278353265964029
Li 13.668823186358363 12.494679641601317 13.226832119702914
Li 17.090615185145168 10.991416685031663 7.339557447086121
Li 13.01811665833086 13.218081338295391 10.54679207908859
Li 15.893035497380081 13.359761583079045 11.359494906436167
Li 12.564830838846762 13.306473829695456 7.859616678985457
Li 11.88233000664936 15.811430725700424 9.995593908939092
Li 14.096728784317449 15.536161052941358 12.101835070768022
Li 15.25358575794519 12.232981398585958 8.828172195942901
Li 15.407489311842422 13.367836243294771 6.390163604347336
Li 14.91590764795954 15.108421200297194 9.148049948585191
Li 17.110459004637466 15.852444881912417 11.330205766729877
Li 17.64262878315339 13.708553737372636 8.88639533655888
