43
Energy = -66.92333728 eV
Li 12.897355863146048 10.17926757115021 15.722708952186398
Li 12.045819812235493 7.405960345053857 14.367477955525773
Li 12.372433608594632 9.992862318709602 12.910856734122508
Li 16.244282935548792 9.259181432558742 10.391949095844033
Li 14.019579400659596 7.227738916565124 9.395334977206016
Li 12.408245936730685 12.605865255168789 14.356852345149667
Li 10.153031725251475 8.305752051473435 16.609496541083
Li 14.372756884955777 7.954757426290116 12.424118241422036
Li 11.15871212887166 7.800799543921726 11.336306163348949
Li 10.10549971660677 9.436128947798062 14.1139791149358
Li 14.646989224779261 10.01648109090597 7.815202557451299
Li 12.272804448592687 13.154500338218837 17.073342341006548
Li 13.549143294283523 9.71261746561836 10.359680413900405
Li 9.014579415659549 6.917842374449049 13.986752413981996
Li 14.901852341748079 12.784757894966969 15.477160935426014
Li 15.190805818690922 12.24723875046923 10.023564507257221
Li 11.631895622768209 8.990632362958925 8.338300925337355
Li 13.098871937658586 15.340400424566587 14.8947622755889
Li 14.984367224549203 10.985281127846383 12.914034055646114
Li 12.674758244269475 12.275708226393304 11.455826136129042
Li 7.5931278174283685 9.317408707410193 15.266348753599784
Li 10.529649625940127 10.44327709044079 10.555088800557026
Li 9.97585803706028 11.460123407299825 15.887838765315472
Li 12.488184481716198 11.894472791928088 8.666786966213856
Li 14.58253733732784 14.092407621188924 12.568343181741078
Li 15.763692941322908 15.436082183877161 9.869600167408855
Li 8.199165132890318 9.431187269150762 12.198068306335964
Li 14.457977205330396 13.892925857812429 7.501975610230531
Li 8.662762624965023 8.776399066195303 9.276912614656885
Li 13.16036375621398 14.623661353660133 9.871996745094814
Li 10.064383813030437 12.09867988614643 12.804331938792044
Li 11.586958226524475 14.749295575663176 12.401031424310485
Li 10.395035731619434 13.422368148005726 10.087456399274071
Li 10.016942747490067 14.263921400803584 14.852802090231686
Li 9.57362943869661 11.60696428189717 7.966301248170461
Li 7.590182749771706 12.10580243973364 13.799615661416365
Li 13.516811406428458 16.837451781399352 11.575385292514575
Li 11.28841358267225 14.500820313273676 7.591033979485701
Li 13.48019309767078 16.814593525096825 8.307769908308268
Li 7.91570398923215 11.896064514050243 10.51232796481851
Li 10.70206404314673 16.29968851582188 9.99598094842927
Li 8.586697171248764 14.590246526983268 11.925764773529261
Li 8.280913908176437 14.517961157778448 8.707380156319669
