42
Energy = -64.60526996 eV
Li 16.744235183658226 9.366558403487726 10.52137607297975
Li 17.977163779958985 10.528798014535077 13.429912481596999
Li 18.07494060269038 12.22961439550643 10.918114365472803
Li 15.342278114474981 8.697773911706207 13.144831865421935
Li 14.491520704196704 7.096975135130443 10.520521704783992
Li 13.163855750415763 10.537283899020776 13.369770195809593
Li 14.429829587052973 9.009655086880008 8.059254608727041
Li 15.332056706336356 11.797690084232142 9.225811185423758
Li 16.816825712049326 13.604424102108936 13.796664946106578
Li 15.450433842973753 11.282126892144364 15.133453970290825
Li 13.823670930729522 9.692713193788911 10.691747516965238
Li 10.252044294746575 9.74053266545116 14.244060180804336
Li 12.129844070781862 7.932752699631827 12.52519788716583
Li 15.729251121057057 11.486411903035547 12.207550470240887
Li 14.624155447314088 14.123467645462618 16.303759750553382
Li 15.708069342893912 14.176013730245433 11.005343712741888
Li 12.492905782596186 11.537212558515723 15.977316043898986
Li 11.506106747236865 8.283863219651177 9.496259527326618
Li 11.041368840671078 12.396614563964551 13.56550731077464
Li 12.224098118920196 11.144655948441054 8.724078994676756
Li 13.167623860728392 14.062619957944083 8.728198373748508
Li 8.824509921138617 8.707514302499533 11.741000872930705
Li 13.833625589767296 13.51149572807429 13.720748916495493
Li 9.349882072915092 12.042140205259859 15.86489167017935
Li 13.218765414549065 12.587869500140068 11.179290542643903
Li 11.04998830663911 10.371708505844905 11.39682052874414
Li 11.566700860918544 14.314351365748577 15.552309184305368
Li 8.604950459860802 11.699696097098254 12.270006773925719
Li 9.120253209807773 10.768188761169606 9.37344784397663
Li 7.116736261908146 10.528831577595783 14.12270703312169
Li 6.4262952184550715 10.74730323865455 10.983879534433113
Li 13.407565972523253 16.327623419747464 14.143553031818971
Li 10.611850299794433 13.112536203710857 10.568007141185085
Li 13.201376148012478 15.601973547417211 11.228971749065272
Li 11.00777118435607 15.049598698931671 12.657491554635836
Li 8.602503885400193 14.032132084333254 13.959592575753767
Li 10.020466787490065 16.74640217141347 14.595474698326923
Li 7.80974846377346 13.591199160125134 10.350529899074958
Li 6.059392589017196 13.198507075043144 12.763225074864845
Li 11.262182490075414 17.779249858468347 12.020585220134468
Li 10.533758646308986 15.819109550867287 9.733897143952179
Li 8.436100839160778 16.105485466361124 11.955814641380849
