40
Energy = -62.83784579 eV
Li 13.61264038161679 9.280103614319943 8.232572201618678
Li 14.072967232863311 12.337732435706027 8.16716562771911
Li 11.686779419330401 11.11944613416466 6.275524067311447
Li 16.44807076648548 10.472031394715572 9.453185595744877
Li 11.201881796144436 13.872050969184055 7.993750252238208
Li 13.784211349578673 15.387017696536715 9.212008791449666
Li 15.56201466079472 13.285381051191774 10.907371674420945
Li 14.844155021953764 8.17317070924211 11.11565921266211
Li 10.331306335966946 8.78231864965071 8.095801237141218
Li 11.521683810595773 11.12457769767369 9.000471009281243
Li 8.914496388654955 11.790434643423138 7.954063022918508
Li 10.909003488651708 15.769936856051574 10.629791564084206
Li 14.02132854234307 10.789322535153557 10.666359672860203
Li 8.231176583962649 14.867832062286984 8.961135182532471
Li 12.627757172177239 13.36477603770136 10.53162017575428
Li 15.942934601770787 13.82724477163036 14.12441067042396
Li 13.607412299184752 15.40925546528544 12.438792011252282
Li 9.716935504736483 13.089709885039872 10.408052166957424
Li 11.865799052341801 8.722746097496954 10.735100650949105
Li 9.179840469265466 10.149458818498442 10.579599286000494
Li 12.00942926204847 6.9380018884841 13.114399206343853
Li 16.057817140767302 10.835787950574732 12.726201620395681
Li 13.271023831731052 9.621754364479436 13.289572156476261
Li 11.091269943336242 13.973500767586417 12.946122228124437
Li 9.333755592482289 7.272979249082109 11.371750870616854
Li 10.265136824652076 9.229012107868407 13.260874152808475
Li 7.049168159054766 12.343370265484236 10.652547963366002
Li 8.440367917822416 14.898998694254479 12.265448087993988
Li 10.856647216251444 16.549335473970913 13.81727320212015
Li 14.36005884142083 11.36228565845766 15.543310307681795
Li 12.852449628524484 14.305432118174346 15.22683949725087
Li 13.756175832306738 12.55226662916301 13.10939378027281
Li 11.465881663274809 11.337499472211023 11.86102895568496
Li 11.746527547217678 8.8274617052642 15.708985628826253
Li 9.150838462845174 7.238614571766037 14.611987656387157
Li 9.546992459367562 13.92940293970829 15.254569424413974
Li 8.914481780957939 11.935475994183626 13.036711921045422
Li 7.420922439076211 9.363321485976384 12.862627093489646
Li 11.442953868610434 11.606030095803026 14.716560296562829
Li 8.899802631647141 10.329690936721507 15.552311279079971
