41
Energy = -63.40584175 eV
Li 8.630921655539195 11.3899059043805 14.966719531145946
Li 7.583614377468709 9.116151002726301 12.870469707125013
Li 11.548402584879039 10.630892274539947 16.5051413284889
Li 10.555912196612391 9.188678796624263 13.893475749087628
Li 12.702399105302348 7.791993180420015 15.82411428755394
Li 6.71505156509585 12.13645791295732 12.429528144569073
Li 10.192451925048834 6.623221095552405 12.733068243182485
Li 14.626274947128946 10.017074499420119 16.839479205586525
Li 11.333607839249126 12.040524631390259 14.046978378751914
Li 7.744446951387812 10.668133660737602 9.718994442047691
Li 9.657013785162118 8.778333686582181 10.843308308160324
Li 10.676368639242451 13.628431302591052 16.19336038842546
Li 9.246358323562582 11.28661477546315 12.13132190176382
Li 13.070353206401334 7.68386843311119 12.857845216492265
Li 13.695422085331506 12.851364061977208 15.569123296439562
Li 13.51799669270917 10.088224518245942 14.3709890876708
Li 15.588392756178894 8.281200036675745 14.516039264832564
Li 12.021011206368433 7.5759173250891605 10.171360237092278
Li 12.163184029240632 10.264790483051776 11.693222077712408
Li 9.188301857024221 14.043953333175024 13.35779684372248
Li 10.691304089847073 11.278766544983158 9.481521202104595
Li 11.284371088901606 13.279493232365864 11.485883032540004
Li 16.097790525190383 11.45005894124363 14.057937058729228
Li 10.266130359931427 9.270670230578471 7.781255946770785
Li 14.95184309995519 9.884933921020124 11.622888792882568
Li 13.301580583590622 9.797254410356256 8.853957951392216
Li 13.886712871829033 12.48606015957927 12.659239480000537
Li 8.67921282930647 13.5784686058784 10.277742891095848
Li 12.238685784993434 14.89266447962078 13.669764261829593
Li 15.430507808640856 14.558694972343913 13.472104595400447
Li 13.447778848947477 12.342068376046136 9.813736614375449
Li 9.260067887275609 12.619667557400495 7.355574729730288
Li 11.340832102407523 14.122885986190184 8.734993797387858
Li 16.041183688653483 12.864047354392133 10.849347832748899
Li 10.527923148108432 15.945732552117502 11.011491836891752
Li 12.183155539779214 11.899990408879148 6.989890943924723
Li 13.605977593815265 15.02239278412422 10.828407460053539
Li 9.205752413601202 15.760862941258894 8.00683853174668
Li 14.138247584730308 14.249515354873227 7.831025793115932
Li 11.34661375804103 14.788330975363781 6.048737492590227
Li 12.167510838941103 16.64221348091269 8.369899612704474
