47
Energy = -73.24559624 eV
Li 17.11378943364368 10.921287548858333 11.129956777169797
Li 17.116359117265148 13.456658934787948 9.748606966932893
Li 11.51303981238796 15.523117671573678 10.299788369410548
Li 14.870511906925387 13.11558023659237 7.395537142217526
Li 13.01387420371899 15.94349238639148 7.651848391350299
Li 16.569923762228306 10.592574199892942 8.196369028707084
Li 14.835535195246653 8.869347128684751 10.827811274519402
Li 13.35225514491329 10.218246436532095 7.8919430351677295
Li 15.507345271951092 13.2910849731464 12.224581105303885
Li 12.137392768360527 12.989883176768004 8.623389553893853
Li 12.890593794227604 13.070294749483008 11.497654059136025
Li 14.377387667931146 14.779830460643087 9.827940395226117
Li 13.760545658473648 17.562188087495734 10.59382681638351
Li 14.379833844535522 10.71794992864091 12.910788408124539
Li 12.147047522545265 10.423845081849679 10.619698052914504
Li 15.683536492441085 15.031948906767953 14.869007590257699
Li 12.175547891822022 8.78836655887528 13.373585294285723
Li 16.440499948567922 15.946920578632946 11.933294778165482
Li 10.143449450990534 12.771951357948423 10.893457143955304
Li 11.33680847366025 17.347110339993744 12.866653508395443
Li 11.114835263017943 14.513361807299324 13.072770397119555
Li 13.69534144831996 15.651925977244602 12.64506460764922
Li 14.723903344412848 11.700102852919906 9.853819237796808
Li 8.680208012466535 15.224459768508233 11.777879992797098
Li 14.502532209769939 17.976260640434912 13.7726012433372
Li 7.321814032383478 12.260365322891133 11.179996963600628
Li 16.989008334123533 9.619628518435185 13.626070075268334
Li 17.929073525017905 12.9086831619023 13.23065336997218
Li 9.761417956683038 10.819147331270011 8.880160249205106
Li 13.51076177856364 13.278265290247617 14.367794172747205
Li 13.773460425797024 13.245396912606026 17.20342328759449
Li 8.903123616597256 12.749572587238807 13.5892560556955
Li 6.499090313027521 13.921592219060562 13.880322305883169
Li 9.118242558311627 15.461685758426276 14.812899470363485
Li 12.613024559652253 15.898683064931834 15.348326243174423
Li 9.395209884304693 10.139932652150147 12.02976836476348
Li 12.899223974489953 10.79525787480309 15.721481577106356
Li 15.761229574046808 11.743059077433113 15.284360601232356
Li 11.527232739232096 11.525925894392264 13.330837705030003
Li 14.6302177544406 8.675113288911845 15.155235018768218
Li 6.981471465011547 10.873822288152825 14.014397753692075
Li 10.986888335263414 13.193765834284983 15.75131341106132
Li 8.069131566783325 12.694408899158331 16.312269657142956
Li 9.878757560050206 10.324760811885623 15.283044541425262
Li 11.302001609262414 11.175038994632706 17.983958948130436
Li 12.000754577397618 8.428373324612325 16.76564377940196
Li 14.32418393099949 10.113189204914631 17.930464930325964
