47
Energy = -73.04891339 eV
Li 16.950583912749284 13.5690830109627 11.716367677433674
Li 14.718005638769863 14.727331382860113 9.648799208352713
Li 14.507814570495025 15.630547567448675 12.734030747672149
Li 15.4815150388179 11.824819770229421 9.21813845905088
Li 16.86322357489415 11.495912332917563 14.134106402528122
Li 14.988348525467366 13.57003630950956 14.751941256655327
Li 16.212093434125997 10.28912625280445 11.705929252986145
Li 12.239731662247932 14.643445410825908 11.210328950309718
Li 14.414731557616232 12.723602836651311 11.988117360034746
Li 11.90880874011551 15.13722723991264 8.19918560882799
Li 12.728994006491037 12.610246330067922 9.350486161478328
Li 15.319965234747338 11.367734160946696 16.665114734783486
Li 13.402791777377294 10.27605333434913 10.865913127548346
Li 12.27160587124811 13.89857750113435 13.946106073590967
Li 13.866560697614599 10.581885744157814 14.094890220415047
Li 15.826851540784613 8.710859396937645 14.862209405100753
Li 10.093551139352341 16.476006133563068 10.391398781456484
Li 12.989719512839399 10.311247902956788 7.812517968530053
Li 12.402684454208885 12.378525982594208 16.260949437206644
Li 13.945020818052482 13.182634338187611 6.879501967321929
Li 10.01487191411265 13.553465778785236 9.790789429373328
Li 14.546081056093886 7.86504553977246 12.100665809118727
Li 11.550879872407794 16.669660117897614 13.265778761140924
Li 8.423867939843031 16.869282912127503 13.022507170506818
Li 10.748850402082734 12.370510724787529 7.22070952465634
Li 12.376438136937992 7.943432905873545 9.587367887414798
Li 13.072300102777358 15.569572910716854 15.963737965100863
Li 8.82980314321964 14.978599348047526 7.73876743106472
Li 9.668033459320984 14.509917643205203 12.560152891643623
Li 10.433262891765558 10.461197717722074 9.967534930830427
Li 13.381287037891834 9.23994389011819 16.760512735723296
Li 9.953098567883128 15.118459532393626 15.345223410354944
Li 7.500362231170768 14.895814770847986 10.58581484027572
Li 12.179686780418791 5.914822872156585 11.947929723924622
Li 11.404195168262143 11.808215825100069 12.283827627189067
Li 13.049527604800414 7.306223661701382 14.551284692432906
Li 11.732581329954856 8.620521900012358 12.383346409065664
Li 9.818315668914988 9.107989820156323 7.761490657072112
Li 8.023188876937269 12.065906657272242 8.46644207459863
Li 8.270415534559978 12.14640954073108 11.600144278279249
Li 7.188720512311834 14.121221377135148 13.775577150140885
Li 9.566206951688837 12.261740497767542 14.498121841226368
Li 9.72897410113056 7.469347976978405 10.680337502054954
Li 11.17763874853473 9.783487657415526 14.916333211656022
Li 7.691837775402944 9.493005222984861 10.008925963286062
Li 9.095064081032938 9.642374114380692 12.732847544478538
Li 10.00870869179166 6.995989800509948 13.92848176509069
