41
Energy = -63.16262874 eV
Li 16.793893396772983 9.076620717036173 11.086899680026873
Li 17.3876053847318 12.005162830496161 10.347632861010391
Li 15.386770085179682 10.214729467077037 8.478524251518506
Li 16.638457877187186 11.24546839178535 13.498400568264099
Li 14.551886066667661 8.974542820058385 13.328065253531074
Li 13.158686084637187 11.690862620698901 6.66940713480819
Li 13.786561109977445 8.393168323115459 10.34840413250811
Li 14.663775118034707 13.135037799350583 9.217189008403567
Li 15.502337859155265 13.816094331402974 12.117809140561857
Li 12.624487525172915 8.792370440162971 7.485081826535234
Li 14.902688608938659 11.068715664946842 11.216284254920973
Li 14.55852898152219 10.73980529330557 16.075645209917813
Li 15.49976979416822 13.654210354797929 15.247503519978297
Li 12.660130656378772 10.92943270757151 9.283133689549285
Li 10.238769777534296 10.953326273977325 7.829124536538346
Li 12.214890217932725 10.145728809629023 12.006353860170153
Li 11.729612998331643 13.584486037728865 8.597233911514634
Li 13.43439622703595 15.679176156575483 10.509524358064166
Li 13.758685812187645 11.924656173149506 13.827903049394045
Li 13.144271749019829 14.933572600664228 13.519117442503422
Li 12.571207723863242 13.069460721917293 11.443109626068821
Li 10.570882818942811 8.868752802916411 9.929699442124669
Li 12.464130721365388 13.524250462673475 15.882886737396495
Li 11.596340635907387 17.138904216431754 12.583629288955263
Li 8.67250577806002 13.391232606826716 8.64148372618457
Li 11.973358722589005 9.21094164149728 14.786220623724748
Li 9.514565236021316 9.382302297923546 12.615199670142518
Li 10.043916063519694 12.030203626777288 10.835354438098483
Li 10.415107335382869 15.248450084618929 10.569369220532817
Li 11.7377319634723 7.309786373798866 12.446067960148287
Li 10.885049965025459 11.717424845127136 14.085175793798838
Li 8.63802245923735 16.72366305450658 12.67472194260106
Li 10.213978718441249 14.304698896932322 13.205252851282411
Li 10.374377740790516 16.01613731809211 15.320731602477187
Li 7.782026835879349 10.70809962767045 10.171926258410423
Li 7.804693863274149 13.951248643810668 11.39056340968076
Li 11.594634670031413 10.986456119515886 17.00344935873005
Li 8.134618244308907 11.851061544347802 13.347257592165802
Li 9.07199911388755 9.936466420384685 15.613511165216428
Li 7.633213174399476 14.649775825733972 14.46889979260918
Li 9.42924815364399 13.023908759563996 16.08875535648997
