43
Energy = -66.59606808 eV
Li 15.507223585493811 12.982876033532479 11.451661588785594
Li 15.830298658567362 10.108626078748918 10.852333862777867
Li 13.931503392210773 14.349474410171284 9.224773256596698
Li 15.376919973043233 11.767916671350953 8.24561911054274
Li 16.3608191020871 11.036289083189265 13.941508791411652
Li 14.442514844259179 15.912161164268625 12.084451683241122
Li 11.832151647447178 16.271604119538527 10.459202878095883
Li 13.800245241973249 8.13372267699147 11.586387755196766
Li 12.01980816027581 15.659354921010118 7.242471431566328
Li 13.871980471768264 10.911022529369443 12.848427924917214
Li 13.178422613976002 11.661329459967641 10.110869258569492
Li 14.254505228341813 13.499138193146509 14.194080881116612
Li 10.987463275271953 13.780782000941855 9.102633226968782
Li 9.733619774848592 13.920230535258346 6.569699119725755
Li 14.379113438683925 8.401373530133407 14.463428946437189
Li 11.844790286895428 13.616967104603107 16.283829918128028
Li 11.713346402057839 15.471277723528626 13.743376749073144
Li 13.503397943784929 10.905371994541051 15.882051553979613
Li 11.573686377958282 9.781184634808406 11.704924302400872
Li 12.309797028210422 12.072191192265608 7.261698938660712
Li 13.591004198696057 9.325147882619884 8.786192502273275
Li 12.623678704868365 13.836415972403186 11.752353265613595
Li 9.317985337466142 16.051409466481616 8.696835192743356
Li 11.681284114277215 9.33231797312337 14.326033291590061
Li 10.352020833624238 10.835491397611966 16.29739098874659
Li 11.185469961597788 8.941664744815073 6.900903936533093
Li 12.050968558508277 7.880895034280246 16.567788008483816
Li 11.406267949419947 7.548183403346386 9.883821157308795
Li 11.630152249291376 12.203041067204833 13.928345634467458
Li 10.664454598866781 10.413208923266177 9.191238836690774
Li 11.750424328759593 6.834998676872269 13.38384677087093
Li 9.451228693448858 14.883456788778942 11.709383841718665
Li 8.872686055758006 11.038810756284079 7.308671730556034
Li 9.308468314446856 13.527941285120306 14.52100951365496
Li 10.266117123327907 12.262997648672119 11.42694010933083
Li 9.234798393208125 8.09102630888496 15.001051480996123
Li 8.25473284424684 13.213117242121399 9.363812368359499
Li 8.726214011178673 8.284664171829588 8.737351348664545
Li 9.298707421285547 8.19677451197071 11.945635538109807
Li 9.138477000924825 10.632674230180973 13.469989581543784
Li 8.14065557479266 10.46652222092579 10.603506851592385
Li 7.2899443060028 12.642980555657019 12.344452887062536
Li 6.634615070920584 9.362091823058567 13.022208503991818
