43
Energy = -66.21117139 eV
Li 16.34375256615228 13.61987913863123 14.446630561064888
Li 15.979628221796178 13.390896873161076 11.187776921183643
Li 16.346422493180192 10.7060175222413 13.076051648564949
Li 14.587812097096903 11.023318171881362 15.705391276946624
Li 14.460212489605407 10.851226365826351 10.88990320651697
Li 13.647036554994049 13.8900908933725 15.60806724118474
Li 15.203025883231025 7.960403593204687 11.384512091153152
Li 14.38431938489843 15.463124603642125 12.803677608454253
Li 13.566660866044659 9.51277849642586 13.34614557402338
Li 14.302232631502381 15.676533668735594 9.461595020710897
Li 14.120362119471679 12.51780362769897 13.25881806848034
Li 12.51723176069808 8.60081292429519 10.76471894424809
Li 13.029775592538018 13.605097789156355 10.762934303512342
Li 11.74345961160905 11.585015979092708 14.805949257908724
Li 14.30139037790669 9.098862205603664 8.518351765302553
Li 14.590430296686378 12.591260824687552 8.483051037526298
Li 12.658743218549377 16.56272943928608 15.19130550447325
Li 12.052177136420731 8.757431615222883 15.668511297002096
Li 10.69508821432342 13.920966508827368 16.284443721873256
Li 12.635033800444107 6.638387082676096 12.770576918531708
Li 13.167055548021018 6.231398543505534 9.563570724123
Li 11.70894913434744 13.656835157154239 8.017637624503546
Li 10.279394790170153 6.819026050297126 10.55584224068429
Li 11.640898031632112 11.394400095751955 12.060431643564826
Li 12.160073783812216 11.089120870156256 9.25981128831925
Li 11.644849489649685 14.468292168905935 13.310164987737648
Li 11.34069117452428 8.37150740484353 8.10274568873685
Li 9.898746868642146 12.937923623949361 10.542592881237526
Li 11.301730624689968 15.67764283608183 9.926805468296434
Li 9.23884627597519 10.585235146832497 15.44928842961412
Li 10.570962935774968 8.85609778970495 13.088906515191123
Li 9.858240285613896 9.696335830680379 10.278344138652164
Li 11.902791489267349 17.229549154851224 12.355525995504278
Li 9.822691885545543 16.36401495460383 14.544361701035424
Li 9.162029463127148 13.347679255291304 13.896489489963324
Li 7.68905955826184 8.41544775141303 11.572889920411571
Li 8.518164923200958 14.319026988115233 8.735528068723564
Li 8.24884592997 8.343235875854745 8.471304572320566
Li 9.654419325089801 11.24526225194214 7.792969731802295
Li 9.189360886626421 15.537644145315355 11.748569092845317
Li 8.676585009516485 11.033366298932975 12.522341288302089
Li 7.153232239527757 13.469672383432824 11.534424007300219
Li 7.46537180386935 11.088150765238906 9.734212307402881
