44
Energy = -68.43944875 eV
Li 12.59598466801645 10.04163606346463 17.97614204113636
Li 11.987048092053188 13.063193665114065 17.28526907971515
Li 14.714358851687942 11.94671356900628 16.73347727533939
Li 11.029842880207587 15.707181601080519 15.69246552501011
Li 9.721463544930133 10.715226345867302 16.60839959722373
Li 14.01671798392634 15.717005245710094 16.976008175269264
Li 12.340416263464602 10.825407659545421 15.384541699224732
Li 10.407546438000837 12.86655006326093 14.796322447201632
Li 8.413457653835781 14.859312874920075 13.545939962898531
Li 16.650760826596063 14.109488776645792 16.256364887546358
Li 13.56570452215682 14.023675921192163 14.95456633396826
Li 10.306434022762687 10.049049752681437 13.436782366664284
Li 11.282578585373042 15.006019763968727 13.020026280876962
Li 7.726677447597889 11.711761031868754 13.776690784060328
Li 13.079742215254425 9.276630887036571 12.820431351092548
Li 13.22734152735876 16.971254184046625 13.921412532484558
Li 14.711416739622331 11.28260696262782 13.983057659351969
Li 7.10968254490582 13.07140577700357 11.069631498318621
Li 9.489531304405434 15.286971054511202 10.678732813527601
Li 9.640845164758641 12.672142461184762 12.007615508580914
Li 16.134136781011247 16.137339346507844 14.09928113255218
Li 10.21629174523479 17.56584399274921 13.08718884332718
Li 15.190184451931557 17.28221378897248 11.338536560668782
Li 18.824252834157065 14.070738819055917 13.975816473310303
Li 16.191981924465455 13.3867947314892 13.66632343790349
Li 11.065669876369759 7.997773529983806 10.949779947979199
Li 12.480938791596797 12.421415468343787 12.955107402020104
Li 12.304487867832236 16.593126907442016 10.843665266209317
Li 8.537347397676305 10.28707329155609 10.985016943116811
Li 14.183332327386916 14.806848168901208 12.232184938086759
Li 14.731394226027534 9.014529038844984 15.567421997662032
Li 17.458554759295826 11.268614662730526 14.943045023394804
Li 9.759672426284277 12.521138030818106 9.111863531016558
Li 12.005753670668378 13.662250733215847 10.549935919410988
Li 14.690129189276279 12.07185023797053 11.176449796235875
Li 14.021271022677682 9.418783296191242 9.94639797655028
Li 16.96283094161622 14.702333789442248 11.28441443483554
Li 11.600488343839208 10.773609552657918 10.840025752433638
Li 14.57430078658466 14.61170252385331 9.412694952503152
Li 11.611898031743044 14.928313235481795 8.180186677545311
Li 13.075912251752275 12.031839888128282 8.510136798866222
Li 17.77530996683492 11.926101556362466 11.910549456174717
Li 16.047866543369164 9.577919013324092 12.235151100320621
Li 16.300782993064548 11.587400280370629 9.067380357587448
