42
Energy = -63.05870583 eV
Li 8.732997829719247 14.39751332541654 16.679365343370776
Li 10.615500940472906 12.236267244535592 17.923854091793565
Li 9.688283700467808 16.366173625580906 14.443132959814793
Li 7.769317697254954 14.17623583998521 13.7988320293909
Li 11.4556872627401 14.126198586470679 15.652153714107408
Li 13.380132826524386 12.117928215266343 16.772625411103352
Li 9.579299025661088 11.98312458489597 15.06457312008159
Li 11.530420581813287 9.966557691934028 16.130262307548936
Li 8.630399440656436 16.01341672590277 11.651746770618917
Li 6.617882947303017 13.741746903115624 11.000018317621572
Li 14.32092884878115 14.02662468267639 14.570960934907164
Li 12.513127445666319 16.151775732731256 13.36348883577678
Li 10.457938384399633 13.973552133350566 12.806305487905027
Li 14.339485627750852 9.242938537247376 16.88809182021315
Li 8.487066902248195 11.640873095253617 12.076545301049752
Li 12.401487606990077 11.837862421091183 13.972004865076737
Li 10.496137933863215 9.668694853761608 13.263600598836183
Li 11.493073272340975 15.871802752403172 10.695981285523207
Li 13.515568460202095 18.143475801029297 11.248365447453123
Li 9.372873989152348 13.50165807188481 9.999953678270657
Li 15.26319415183247 11.113387134454316 14.658928996467859
Li 16.156215918290737 8.229084352639775 14.558311283846797
Li 11.310031116287108 11.511832435747676 11.12856612274995
Li 13.389117735839202 9.0014159329158 13.983467641584872
Li 16.208232568752308 13.130865742457496 12.350538359005443
Li 14.235592146331777 10.78798191215801 11.70637417923534
Li 15.277183659903121 16.00379169693595 12.380010653010348
Li 9.417081832644936 9.327260116781773 10.382929540635786
Li 7.419079818748864 11.25185058687695 9.219895268188147
Li 13.360847720900376 13.77378618600119 11.808616879298247
Li 10.257574553451391 11.156345640085242 8.335575182038296
Li 12.223074939679591 8.665026927719973 10.958310903555175
Li 14.254850211375771 15.690822053253196 9.71384259432103
Li 12.252206783981746 13.411438161768011 9.091354136865426
Li 16.964207984880385 10.074385554600697 12.265023642855628
Li 17.949799355788638 12.03487302614766 10.147432193477147
Li 15.064202410544437 7.869951361620819 11.663135042629852
Li 13.03994713508362 10.491177499719372 8.905796937268557
Li 11.04969023561176 8.27737902569232 8.123248375395914
Li 15.90762006268425 9.774984055721362 9.501683961886306
Li 17.13006250400012 15.10408282419547 10.183095507856109
Li 15.166081614618111 12.806756436593027 9.626148124146729
