40
Energy = -62.28907281 eV
Li 10.581989502103776 15.255232278083813 13.675930478210779
Li 13.629902733956984 12.184658271216266 16.509681812395073
Li 11.028970217997369 14.116891677427068 16.75370161130949
Li 8.67974298376686 13.061180672193283 14.816350919219607
Li 7.467786850413131 10.102488506882407 15.324328919967282
Li 13.587480016179553 14.711478144849853 14.693354185612252
Li 7.815380999603311 14.662425103180109 12.085257754924545
Li 10.356213590244064 11.013075903031323 16.62660592077658
Li 10.656131697323175 15.199284072525781 10.472215882501398
Li 12.578712783902185 13.760140515915582 12.096659123222059
Li 13.355900655062277 16.48343175611093 12.065369411039109
Li 15.853067342114803 10.290680835145656 15.124143205881861
Li 16.41882954546485 13.417385028946159 14.856760913874506
Li 9.847460606699935 12.845275361746536 12.109189852418943
Li 9.832414792068217 8.145021768870091 15.350157204468424
Li 14.277334446428503 12.000439190785656 13.694632188265265
Li 16.17664212230036 16.387008996272712 13.737912275979564
Li 7.394663242979014 11.464341857084687 12.365611305871822
Li 9.709279370303411 10.347384807261491 13.77244795510777
Li 11.508860791017307 12.544144481554069 14.569705447373327
Li 16.76108523253268 11.546135024527787 12.286405515398402
Li 18.109570957151412 14.517406329400817 12.262207952066676
Li 16.321470825640464 16.333896487336457 10.615647467004441
Li 15.373680536546349 14.301092573797035 12.193555571789773
Li 12.574959866768214 9.77979540364189 14.816910821817034
Li 8.73863118724062 12.962547383693202 9.399123998882308
Li 11.250650949510506 8.213268785079629 12.384174604416668
Li 7.982667999077919 8.43234400203426 12.85405658428163
Li 13.643332982052474 14.662236326104923 9.550060139166153
Li 9.66612349237571 10.21226469712551 10.573047652528304
Li 11.535049583681948 12.45341558142112 9.672856583684446
Li 14.278911813691574 11.919194225949868 10.721302719487113
Li 14.487244483069254 9.385352222133662 12.243205005092097
Li 16.494309031360277 13.35245138672311 9.67988731346646
Li 15.918368029148402 10.163442988611576 9.432400674739357
Li 11.984165672811269 10.942159467887462 12.165034092169359
Li 11.169538548061213 14.084935108312951 7.534674998534205
Li 12.646938254825681 9.672831969020706 9.639644024445598
Li 10.618343203133065 11.00570266069422 7.56841085491407
Li 13.6958563362109 12.033947536885155 7.860209234382528
