41
Energy = -63.34572102 eV
Li 15.517804244740276 12.383423037206542 10.029844110113379
Li 16.087032457871832 11.913710386247383 12.92614733377095
Li 16.88794643069154 9.209141560281266 14.090747437101836
Li 16.137944369042128 9.58713663786504 10.93402442876128
Li 14.809895864740703 9.77413784485892 8.107042521678547
Li 13.304620614938331 12.558303079170546 11.785011248473415
Li 13.975003459310313 15.047653182659174 10.35884913861118
Li 14.967851926200852 11.272833612177362 15.74832654789003
Li 13.079467704710755 12.327700338850002 8.540759264139641
Li 14.70079108810975 14.426650733581429 13.433760905768048
Li 15.057921407471026 7.413653183575489 12.420810133477838
Li 13.386848710214737 9.931423857246115 10.563170254105264
Li 14.379088216615115 8.07906058038677 15.362900375147106
Li 11.936963121551258 15.327281380458823 12.67806410806116
Li 13.420331406752195 7.393632726796179 9.652475549762372
Li 14.210585558948164 9.989626520893562 13.400412071653701
Li 12.29041011554906 15.193346910637722 7.660879200219327
Li 10.286851504615287 12.555598111767862 7.602659506256031
Li 11.487527364284421 16.99925945820953 10.10686502808369
Li 11.311166783888863 14.206192459772852 10.019375623004096
Li 11.908708548821831 9.839835924506533 15.467775994845065
Li 11.446780820848984 10.415725726647286 12.78534928531731
Li 11.694891902038302 9.600311496092758 7.986569100381804
Li 12.445261561243914 12.699167837711897 14.56857912809304
Li 9.164007385458131 15.425619956862715 8.604782941935785
Li 10.881348181167558 11.38453939229358 10.162462321610592
Li 10.346702846514882 13.005097720073518 12.489919002505783
Li 12.247711985074107 7.758996012930608 12.956707470906233
Li 10.495473379396387 8.475711907803602 10.63598990284864
Li 9.020594845889773 15.474769640672326 11.60226201498343
Li 8.543647153196959 12.94454563067009 10.102708921870944
Li 8.701078380017888 10.567341470199864 11.922639118935743
Li 7.401099584887988 8.24754386830783 11.308942136919825
Li 9.352892472725278 8.566001086218524 13.786698567500826
Li 8.618287403512015 10.098138841033492 8.942432498042788
Li 9.779440787839215 14.596871190152118 14.708124024533129
Li 9.348566458737919 11.520539495035885 14.679976043365217
Li 6.2751089868058205 14.570060220914693 10.117711479941997
Li 6.2296972834305935 11.263851019609382 10.778478491392113
Li 6.65613235958569 10.153720023554943 13.762274888599212
Li 7.442594388095721 13.165381479820244 12.82580971514963
