44
Energy = -67.89734581 eV
Li 12.316926095759296 13.187748111978694 7.977277752051392
Li 14.726434922914006 10.93973731372881 7.944288728891616
Li 15.027493000563478 13.334024175611535 9.664781803255327
Li 12.852778322056789 17.916049617738384 11.804322576762328
Li 9.628871353997623 12.413184612877782 6.6769925243758514
Li 9.706920933465314 14.486191806166888 9.249087405741994
Li 15.402799842528593 10.55850825548895 10.94577254496188
Li 15.073706259709544 15.66817946934291 11.80030178966205
Li 12.573427096805489 15.052706142373248 10.266874654233611
Li 16.69337891535691 13.021492121144222 12.276242424936992
Li 11.853620349302117 10.27720406978408 7.442369385511556
Li 12.686357574174382 11.343621427146411 10.16922396062862
Li 10.24753125048981 16.408934456205834 11.589037195471805
Li 14.324198045713665 17.328747199752083 14.368796292316812
Li 13.675590057109158 8.614478466600012 9.559667930741016
Li 13.785602544160527 13.004088945206393 12.178502884366914
Li 9.971589474411557 11.687847179667383 9.30317336844234
Li 10.806031919645818 13.447828936065871 11.911686111781416
Li 12.522185640236843 15.526252683175372 13.254590878426253
Li 9.122573570063079 9.222004234121869 7.460930001749993
Li 11.604458290413776 7.18369138244939 7.7030352157523
Li 14.789752761410211 14.225592949370352 14.483060639224497
Li 11.101115436539509 17.334827188940114 14.612864560562786
Li 9.061555114112227 6.727385540240736 9.387538246663686
Li 13.057999505422536 15.616335952402416 16.532849397805894
Li 12.490773125530874 9.352626251158398 12.32183368207338
Li 11.946207254491368 6.544049448502287 10.854092216204835
Li 14.965476551173667 10.888605745561753 13.799093466771854
Li 7.976010885226529 12.803570669915391 11.483389588264888
Li 8.938795853129317 14.961352746814049 13.637821769449387
Li 12.048644407935651 11.658029316840732 14.046785381881257
Li 10.754111848317498 8.877189704746371 9.756102060828301
Li 14.762108820999517 7.901309679557922 12.66549427985354
Li 13.602496178804797 12.352316771407697 16.312782143874966
Li 9.949597031216596 10.673016113899047 12.011812451524325
Li 7.928100464544212 9.685621558968592 10.238230704049371
Li 11.213792442742216 14.039037598428424 15.165585154413908
Li 13.076201503358925 9.304185223513718 15.409989296338365
Li 11.97029635574211 6.97853612617231 13.844276985320883
Li 7.389437374221078 9.98497730298392 13.249585395818793
Li 9.06413061689958 12.11276242739927 14.300723069470541
Li 9.497012477682214 7.828113389173642 12.203366294020872
Li 10.786939940470944 11.387279790425927 16.750529411488813
Li 10.167739725684466 9.357234452494884 14.650398884862936
