48
Energy = -74.90840147 eV
Li 16.164032507998957 15.876665896205632 12.362930237311026
Li 16.908334569633627 15.45295239222436 15.507917226643848
Li 17.00370708306865 13.223679371585526 13.369057330304909
Li 14.392545405315358 13.26150789731589 11.906626449221134
Li 16.48883334356292 11.176520143288881 11.18518798665288
Li 14.34413627325784 15.614962640201172 9.864587391619628
Li 14.73888051325217 18.377630279497392 11.277695265742617
Li 14.803164202393923 17.57282434812827 14.513456412144844
Li 15.375421729911086 12.6968251412607 16.276814482961672
Li 15.530239204788735 10.751938533364248 14.020360052152334
Li 16.654171316883 13.831110597115739 10.087409998632204
Li 13.255087656776174 16.325800922791384 12.412482261368686
Li 14.271978597247013 15.554159567413011 17.116085054935997
Li 16.23530599387011 8.367189158679489 12.049778209026401
Li 14.50534024146556 14.584683671647388 14.497953762354395
Li 14.00126179487889 10.09946123234269 11.388685184824643
Li 11.813704906873635 14.359347749334498 10.47085613684041
Li 15.373201125289416 9.324394707765354 9.08122186880135
Li 12.226722395137152 18.786920103440075 13.072115650163934
Li 11.872147617497022 17.337166543996435 10.08950797523368
Li 12.871968347634407 11.34218344549078 13.732364489271358
Li 12.08883732093371 16.343643426166146 15.100320982760485
Li 12.33481989670023 13.277637173777665 16.09538257503864
Li 13.877309045131021 12.320795735009643 9.251370150095719
Li 13.61745239374598 7.290183431171472 10.885162124020221
Li 12.202959149176843 15.021332056030262 7.775642674519977
Li 11.28877912897737 11.59569783956349 11.246519466999747
Li 13.059973192657749 10.37414928779401 16.323585353363278
Li 13.693001248088564 8.427405132896672 13.806959852870909
Li 9.485040323169747 15.234379960331779 9.447852773954091
Li 10.265651638799854 16.37152586264724 12.552473905494963
Li 11.609036527068673 6.270064771698191 13.155323534197684
Li 9.829734862585607 11.561099014307983 16.904382961946254
Li 11.860961578270656 14.011151537443995 13.33410725981427
Li 9.66799232842619 14.464196101080907 15.257004569341172
Li 8.380621480613886 12.313251730732162 10.060903564900267
Li 10.17777139149553 11.74707856375224 14.300431060127785
Li 11.304716443046908 8.800895330831452 11.951154521608107
Li 12.270795412563865 9.50393913236884 9.150079740729362
Li 10.8747225562514 8.988198062918073 14.718053979254364
Li 10.711913903374839 6.731466405829993 10.178094408938952
Li 10.866519381546901 12.367430130738859 8.499036394359088
Li 9.319046735808808 13.668904748996912 12.25222066700421
Li 8.86055171239004 7.559982018436317 12.565368993674
Li 7.480873573845906 12.523561547415897 14.326454471273147
Li 8.103351416442077 9.60143412962546 15.084017254298589
Li 8.692021612425455 10.489409249362375 12.377526381331545
Li 9.382326770354634 9.432136576946277 9.765224065926482
