48
Energy = -74.73552996 eV
Li 15.897011610410214 9.589500793041518 12.295774365054713
Li 16.37999905474999 11.81027470510474 10.48843008458399
Li 14.79084913677566 12.456773831694976 13.172961385700509
Li 14.300385065298894 7.365309803906896 11.248689116160387
Li 14.622490295810069 7.5231692431442845 14.308248041663305
Li 15.968653393411412 9.164174426121848 8.887346925348075
Li 15.019014218843761 15.455724617464776 13.743277491176633
Li 15.132167056944153 10.326522229591692 15.38880492876087
Li 15.641271352801796 14.799775384834316 10.426607310392104
Li 14.618443162988312 13.355635385744854 16.171206871011197
Li 14.978711565940593 12.539347371211388 8.015145594879975
Li 11.929884126171741 12.385510468902488 12.646168778763391
Li 13.169585712636035 9.59814032595043 13.009996312547703
Li 13.663357453048436 12.760743886804253 10.491499625019085
Li 11.60055374361117 7.161152383966461 13.628977950562112
Li 13.268616757195277 7.645131342673991 8.421761531195495
Li 12.176085567441527 17.233197317225283 13.55316317528094
Li 13.687746729633853 10.013730142322096 9.99361845125715
Li 12.469472640582257 8.84607499689891 15.953330693033312
Li 12.47440028349629 14.472318523617755 14.395795617959939
Li 13.313092989108847 11.010426391013814 17.93001473402556
Li 13.353166924717499 10.275777807267753 6.896965910169954
Li 12.587651578512718 11.574380889511364 15.289620387845169
Li 13.220047018871899 16.209255254560635 16.297317366139076
Li 11.58293011748061 13.53936525292431 17.141440780058005
Li 9.954908987176767 12.892338089367543 14.624290829728348
Li 11.882757239027312 12.200725466691498 8.305561165995492
Li 12.723750569814735 13.40436215019582 5.970857129977036
Li 13.022442471952212 14.971328197622125 8.612703193549535
Li 10.66947569016792 9.391466186961809 8.310503579228614
Li 11.442290615758754 8.095695176705627 10.891239676749256
Li 10.210733296352226 10.760783749100476 16.67169347014164
Li 12.960734130988895 15.223443617599006 11.625440822802684
Li 10.382432614213542 9.96563303114296 13.686077990642456
Li 10.35944234068508 11.589919648950067 6.1296100596918865
Li 10.999686014289978 10.829053710461013 10.726885024082515
Li 10.085130056557343 15.76562883093418 15.586393134523371
Li 10.75945119433527 13.808295743508854 10.340873895682016
Li 8.385317471944465 13.36657597002419 16.738339313020433
Li 8.630803918583597 9.340409359081974 11.259479247674244
Li 10.103639069380126 14.458167728491606 7.644272368353425
Li 8.891180536572048 11.878822809841823 8.976007696172523
Li 10.751683531137537 16.63556474814986 10.122275992225376
Li 7.707168363079703 11.11893354500184 14.55570113515751
Li 10.097765210682262 15.154936886419405 12.681414992859589
Li 7.542087261543373 14.326479749974627 13.873583613173224
Li 8.78391052970425 12.326893688758643 12.022749694366935
Li 8.10109350917916 14.763213506935786 10.388818142928123
