49
Energy = -76.58441036 eV
Li 9.849758040848416 17.573380093582742 10.928428439470885
Li 8.452917046705785 15.01347905887099 11.9452160953264
Li 10.179296118052852 16.967443415125512 13.873042719096231
Li 9.919643833707095 14.16497389847665 14.452550365221839
Li 7.588902309796302 12.336395886414438 13.403833118097547
Li 8.161478989157493 12.117489777891365 10.032715416011646
Li 12.334003426874009 12.49060204782691 10.379797342701382
Li 11.755474708882934 17.01036883988651 8.735177816916385
Li 10.093580940456588 14.714204665263166 9.409307836081034
Li 11.370285784098206 15.269883712408326 11.734877231811657
Li 9.47452603378269 12.832850701299332 17.219312909432897
Li 12.205457880875151 12.920299328838134 13.313907261958452
Li 10.979082729876868 15.587653570816355 16.97683835311609
Li 10.148327629708893 11.214940660155495 14.696924965670421
Li 14.5926556934973 17.078410855113127 8.059500698647629
Li 9.947644962620434 12.458453356020359 11.878904834260615
Li 10.711432434572544 10.032752440537143 9.784799615148053
Li 11.621945629394498 10.404193206650582 17.393338292440177
Li 12.058900772637214 13.141640206867224 16.235866551486808
Li 12.077618711148798 13.228640191526427 18.93843507737776
Li 12.655764935448245 14.842150216063004 6.675864531347145
Li 10.738882128519547 12.430162086048226 7.928265384851717
Li 9.031000654242796 9.630454576843624 12.299809303423867
Li 13.469843887640165 17.128019844412005 11.35772140332876
Li 13.645743358514528 11.991656151100614 7.792703902260715
Li 12.759379894489467 15.535927573643725 14.421280705414024
Li 11.406946705361271 8.379204991872816 14.657898148911572
Li 11.687361025687236 7.497588375724062 11.704718934307685
Li 14.250204912150663 14.893033615185084 17.019864780946385
Li 14.50131081297613 11.736169811226628 17.257612949669134
Li 13.050086455283578 10.795924775780259 14.94355373378996
Li 11.80758432883604 10.203490584110684 12.370145185556071
Li 15.591651969766836 14.29665640155801 7.481212497345487
Li 13.48687307193835 14.812543959969048 9.241397010115408
Li 14.435789175258924 11.411977781072702 12.377091289271103
Li 13.788065384384767 9.699244067253955 10.190975743608854
Li 16.153040399024746 15.548700480532336 10.44402469332263
Li 14.209066446669796 14.327453016000183 11.973252000351899
Li 13.494787651724225 6.129598821829538 14.318348409398727
Li 15.763617987080776 15.809161454780833 13.906021872692575
Li 14.642503913763603 13.24550253852779 14.699198199664231
Li 16.033760323597722 10.593140073300084 14.650487440903271
Li 14.140752065771318 8.482370470847064 16.15754911351634
Li 15.561104571861158 12.45417411521341 10.000017195505196
Li 16.632890702235493 9.807747058453522 11.72236087285085
Li 14.101387146840638 8.630492052832489 13.17061398266547
Li 16.831808197752014 13.072808889456168 12.726836941844768
Li 16.97645964494532 13.528068685477686 15.928212105070427
Li 16.385492740827345 7.491261133896517 14.23010669212933
