43
Energy = -66.73506675 eV
Li 9.359216124757115 14.551914485730958 16.591682480839932
Li 8.662425958074586 14.267355400715571 13.443067169707785
Li 8.268150212206402 11.857106291811418 15.43566777560299
Li 10.113068011308867 16.659800330462467 12.09577918022466
Li 8.32797379675846 15.078765423130386 10.070095727155612
Li 9.533210852984864 8.774274614404668 11.385404441688356
Li 8.26673838566647 11.847368402720543 10.258930634271263
Li 10.574697018032579 11.687771496357177 17.45095062815832
Li 12.458749956123661 14.054085334408324 17.014739900149404
Li 11.420342930661361 15.608760481315121 14.527120043691752
Li 11.5426745963201 15.858540261579265 9.596150704141472
Li 10.862864767809443 12.820589855366208 14.895099453695893
Li 12.851652074213805 13.238740520457917 9.852382012590315
Li 13.169819076588814 17.600444283413573 12.661137111872662
Li 10.293656393138317 13.162748221018896 8.398044080156083
Li 10.361752414326766 13.780593090550619 11.319377668046036
Li 9.71442184874203 9.780886953893926 8.324721252866517
Li 9.597361453940907 11.353609685503665 12.802094137092963
Li 12.190953931962618 8.284279874015915 9.948008663978465
Li 11.730372442173875 6.826227665408526 12.845510634764132
Li 13.567828746980464 8.305003588032239 14.930860260070776
Li 10.662942077313472 9.63591838457336 14.893052289098756
Li 14.234446118622046 16.102773261820968 15.54093290694832
Li 13.16179586322825 14.240852867376717 7.335475925167303
Li 11.035492502558665 10.979048318879743 10.327600837626173
Li 15.388978962825755 13.037434678570554 16.709965079344077
Li 13.170470976441878 11.156997429664745 15.817712020824198
Li 12.659429908876266 11.103530677327782 7.925163577641143
Li 12.807149729848916 14.996908961147955 12.219800680532323
Li 13.89706343459363 13.60521196507692 14.448381745131801
Li 12.205413970950643 9.460600758030642 12.60173050661498
Li 14.715797596778232 15.54461132557387 10.006171240848897
Li 15.6796311279407 15.598140190982265 12.968238416702997
Li 12.360767330574804 12.226312040540224 12.567222202053923
Li 14.007982834450372 10.627708961243453 10.608371546764024
Li 14.638259922375612 10.811497448615071 13.47560446463783
Li 16.77018847745198 12.893484274713966 13.997056220787503
Li 16.200038878082662 10.078033769630517 15.497178463323355
Li 15.514039221575503 12.663788685681347 8.911387634842054
Li 15.071096374156655 13.1155598006017 11.71766989726603
Li 14.737923544297287 8.135135523433421 12.186772616475178
Li 17.56469437215614 13.991555809838793 11.083714320816592
Li 16.867362322007892 10.85645284009277 11.597729456686206
