46
Energy = -71.36836706 eV
Li 17.03966293243621 8.602371995003265 15.242768800174828
Li 14.35929668124768 7.806810855963596 16.67177927001783
Li 15.307040253616089 6.371910125471663 14.070010351610017
Li 16.458688775820494 8.531182848946457 12.06054042324014
Li 14.984815606492024 10.83685178371726 16.26086222746759
Li 12.13648399892375 7.140481924812913 14.532891826051761
Li 16.482158261434435 11.165462946139382 13.490388960252089
Li 12.163359164119948 9.97209043230146 15.847023560753774
Li 14.51616817674668 8.962450122061265 14.150309884941601
Li 13.478489177215172 7.404219210923966 11.746381129582348
Li 14.231280992716428 10.361157322129596 11.474336886055076
Li 14.241057731368361 13.778082990884952 11.159577268095788
Li 16.432007720115514 11.59650120114261 10.442535764819914
Li 15.849152726598373 13.55941765358482 15.394410498649522
Li 9.439338126427097 9.024272534624426 14.360383329578887
Li 10.260887656182065 7.417720818609529 11.923031523898494
Li 12.557024474519764 13.629611620725225 15.861634152846577
Li 11.84021517779243 9.39480794568409 9.886322264335584
Li 10.705459386547055 11.835066571468612 14.129018782027972
Li 13.512016514423419 12.23417096261562 8.880128928449743
Li 11.964878836783567 9.472581919174976 12.98086136322295
Li 16.733317991498915 14.01319381980381 12.375414627231722
Li 11.811976995759405 14.204670128938192 13.021156473222007
Li 13.813756599149704 12.08136424391176 13.810332547128375
Li 9.279666526465615 13.244345405940994 11.825165781190481
Li 7.730192813664191 11.65204582704161 13.659011465342259
Li 14.295275900054422 15.347777471409078 13.730026039139302
Li 11.924326232241977 11.92872457946026 11.326986195529214
Li 9.342733184542066 14.372229166729573 14.592401174214492
Li 11.316597205466113 14.387197876761569 10.044860870122061
Li 9.559522003765393 10.354612813552356 11.691020659295432
Li 7.282890546357934 8.930180055024577 12.091723436581313
Li 6.937643276825912 14.574569713609897 12.355843765122787
Li 15.43690102784281 16.54178445009794 11.103020191069396
Li 16.212215688965465 14.310321651774206 9.168902053979231
Li 12.578547755127857 16.579097336269886 11.52381951608346
Li 8.38412001578863 14.760461381220667 9.5703811378622
Li 7.191601679343779 11.899320272671982 10.623136698405016
Li 11.607773991630959 16.714058316493105 14.35511376351187
Li 10.027889748578643 11.933754321083402 9.118349389615988
Li 13.976508768861967 18.42538294206421 13.063693613762899
Li 13.546522783224777 15.689324483066647 8.848150993914187
Li 9.620753001046234 16.13267976957839 11.999064804348214
Li 13.491754102671505 18.675363574188477 9.96121128488866
Li 10.713850292081053 17.17127673315398 9.364319246980502
Li 11.13235227483351 18.865547633074737 12.037586231124623
