45
Energy = -69.97400761 eV
Li 16.50691071106181 9.219018258586518 9.813171093650817
Li 14.477837466979121 11.017266727617598 8.117646664649103
Li 12.30889895887337 13.560324935190955 7.4500190359159015
Li 16.986030826902645 12.339424883879852 9.518794472034411
Li 14.205410835548319 13.668047142152686 9.642369721315417
Li 13.18541707934826 16.480079546860384 8.962916275338756
Li 13.270690740663838 8.694674221332656 10.236378434016556
Li 12.10617024130615 11.588297460721748 9.861395995844326
Li 15.32786730569856 8.858862340563467 12.67361589821414
Li 17.28143139684326 11.175248363598426 12.452999814732895
Li 9.463489421054716 12.602133684821572 8.84752514860397
Li 14.890738218505671 11.112072914255842 10.887690137538138
Li 15.772539113238413 13.807392860456348 12.037397367091053
Li 11.332001384795172 14.597758099227585 9.951765429540675
Li 9.931656702175722 10.012514617390632 11.19146319725214
Li 13.417282839909523 8.9988325994743 14.967606265707591
Li 13.311372206681982 15.59692209358166 11.903893108931912
Li 12.626007361293585 10.202154978637914 12.47077856225442
Li 7.5407572620228285 11.899803669828401 11.364374542968672
Li 14.735388518896983 11.666957269234192 13.796992737707496
Li 16.19001759157847 10.312820726963462 15.562768995763886
Li 10.058698905064603 15.655944989346565 7.76514358352686
Li 12.837662783312355 12.9602466224825 12.236737214658993
Li 15.595146304028088 16.57646891897336 13.470957260994401
Li 10.637598326533741 17.347873507441715 10.204106169217644
Li 8.214550996921725 10.253368674979628 14.0900440252448
Li 10.099151389407728 12.807778593136222 11.753918843711409
Li 8.492508306233091 14.919212606724995 10.575973572484658
Li 14.031524684176187 9.762420395603826 17.7640772418007
Li 10.775587723538603 8.241416175019301 13.500953621968616
Li 14.194901473637842 14.336939426371526 14.63529040455838
Li 10.669673262921801 11.112803884778566 13.990561631229447
Li 16.879342211176123 13.633962200777466 14.832018384671638
Li 10.570690398739993 15.794302221733822 12.700867277243699
Li 8.467736250772859 13.518688414190079 13.837054842309747
Li 12.771524436209388 11.65941376544817 15.876899410879213
Li 13.070417208777927 18.27014949813796 11.913908501078472
Li 11.432331307195419 13.820714680139302 14.40805986906231
Li 10.845495929258114 9.55449987462461 16.470987106166366
Li 9.835043389440864 12.450184176609756 16.42662239464442
Li 14.95309365486913 12.76771400439994 17.183709880514005
Li 15.288584913108922 15.950732457503312 16.55488003557922
Li 12.790891529983067 16.753316113625047 14.679271145598971
Li 12.416015304046196 14.54009049743979 16.998695593803234
Li 12.082229023105358 11.820967438835527 18.53868774259237
