40
Energy = -62.09078107 eV
Li 16.05901963824203 11.079081484049466 15.236835053058575
Li 13.647801550211572 8.762728989559623 15.594919792753748
Li 17.476144732155724 13.684074796879322 13.933862607784382
Li 13.342793651400607 11.158716783913487 14.291651457574389
Li 14.498271278255356 13.797991985227489 15.090780502073667
Li 15.106048228531822 9.33740368326272 12.838626384330896
Li 17.951289634022256 10.91425516745707 12.560841465016598
Li 13.021301564281437 11.797707549445715 17.051776009847266
Li 13.85177213740956 6.72195467461572 13.03250065177607
Li 11.960792681410602 8.869811108590346 12.953938744864569
Li 15.551604929442536 12.250410664429008 12.603306011835583
Li 12.13859900556754 14.935944911216668 17.0530949159598
Li 14.969757968456497 16.070524027631592 9.438119042906537
Li 13.474281982166598 8.371730505504468 10.288603408428157
Li 12.888839902973997 13.304198509992542 12.647318322184782
Li 13.5850903450713 17.685714259794892 11.905573411266026
Li 9.858077458444805 12.800300172516792 17.343829573662884
Li 15.858938716137347 10.645062483580064 10.118428245677457
Li 17.263827426784463 13.54732434619771 10.770568701843127
Li 10.674527254324122 10.322210057348606 15.461209751008075
Li 15.142646007471052 15.166471629569564 12.308855296459265
Li 8.812522833474432 9.453423714356335 12.96224096866905
Li 12.440128662486245 15.769163233492561 14.013002571149073
Li 12.872430722347705 11.089951778276001 8.42811883923806
Li 9.519075350751637 15.291401402543425 15.179169678315137
Li 13.262509132403856 10.944243525104557 11.275529023141072
Li 11.394730450561541 13.164370482534453 15.123297738941146
Li 10.212252158645356 14.180085883573346 12.554169231460037
Li 14.343876592570792 13.304367127588616 9.994179022215345
Li 10.768735425813254 11.413587892656084 12.795670293760546
Li 12.405944743320964 15.418350229788809 10.801686294738229
Li 10.189806546848173 16.900178585393984 12.301656256513692
Li 10.581161275645044 9.899787884620755 10.30496239123634
Li 9.791828282319027 12.12510115003259 8.034211339154743
Li 8.580139913294344 12.40947104978275 14.345254678793605
Li 7.596583526997361 14.97566292953288 12.517532705103916
Li 12.21264241304047 14.319961039651144 8.027283840675047
Li 8.53281935944372 12.151379619048452 11.111353463289863
Li 9.465124927473427 14.871581086300443 9.80068698430579
Li 11.323943954604648 12.75923016562051 10.193412696518351
