46
Energy = -70.88433528 eV
Li 18.183978549411396 10.353560911678423 12.9764996719434
Li 16.73112875610217 12.510389738704443 11.18413420372531
Li 16.61613288339855 15.159290431697691 12.279340157710081
Li 14.83749020114906 17.220201448218674 11.331438275811413
Li 16.793579509082686 15.247045450375639 9.265261163005135
Li 16.109412050606984 10.050427870194298 15.488629694318561
Li 16.851057348419392 12.851464889139159 14.331414305825014
Li 16.29581050376229 7.966748774424364 13.11216111232328
Li 16.07139330034194 9.670659403899473 10.358714559063827
Li 15.38031205084186 12.31258315625123 8.55455078358969
Li 12.481062215847219 18.090787534299263 13.249140087219661
Li 14.783725578075234 15.864208953687603 14.465117860108492
Li 14.086371630204761 12.986043529717978 15.832920632982749
Li 13.785648199497192 11.653100869439667 10.809028653668342
Li 10.940011538438666 9.21965226499751 16.15623166989989
Li 12.839707967392954 15.51861220884102 12.59337029931278
Li 14.447307673129577 14.469432256948915 10.40981223563384
Li 15.402874514901495 10.572978726730941 12.988695995775345
Li 12.574073308622435 13.69756640772799 8.306911619579466
Li 13.436076965018772 8.829023916210662 11.766918482355614
Li 13.742040701221281 8.109716794405964 14.872867601770075
Li 14.319091628783278 13.21696718374813 13.073011500090331
Li 13.503500695809342 10.31822093037609 17.1913896683833
Li 11.99020410874005 16.46816483287018 10.13197480046613
Li 11.68937908736178 13.57370062293933 10.95900961638689
Li 11.122739137062183 12.34403109180356 16.525881992930362
Li 11.784059881562944 15.510245342381744 15.313545821572877
Li 13.051355635159881 10.029075805366201 8.838333367878299
Li 12.841201425266794 10.649902102581937 14.45659006126267
Li 10.922556221193494 8.353193303019555 13.356730258145513
Li 11.267910155533958 10.88291366374046 11.908905240653665
Li 10.052427762135403 16.078952828748346 12.59607840140386
Li 11.625366018657806 13.199209268589494 13.897391552190095
Li 10.46716463487555 11.579243368445267 9.002279844099355
Li 10.537147297461768 8.813169642135762 10.271587048878274
Li 9.61825193378449 11.01988847050483 14.219090216367993
Li 8.897386087219996 14.117760020693316 15.106307737652703
Li 8.474344611809716 11.493358315767194 10.965861051348748
Li 7.867843753030511 9.53219454039645 9.084542212434991
Li 6.9838588963617765 11.930199090916032 13.58810365467026
Li 9.454993245247328 14.534713373702592 9.72156294274581
Li 8.068533625898272 9.168564856404183 12.352704076194044
Li 9.322180314330577 13.418593555752226 12.518191819943164
Li 7.417051134624905 12.528321097644731 8.654777794198937
Li 5.798409378836122 11.065323677066297 10.867831794334542
Li 6.848065391192374 14.063727727185947 11.37794750217376
