47
Energy = -73.10336943 eV
Li 9.256843158262559 10.835794602076577 16.440702742257187
Li 8.493177744139395 13.423436069484264 14.73729681295921
Li 11.102569839827568 11.5668349398296 14.460244470729204
Li 7.128685170215643 12.899087847760233 11.698898085288032
Li 11.269319458211998 13.467452081550213 16.485454925928952
Li 8.686453823700877 10.586059660442242 13.326385872024472
Li 10.531877988502911 15.915591224747867 14.396472430570595
Li 6.507241821357491 14.926185760313317 9.3691531240788
Li 10.811026185686778 8.6397001785606 14.522669122524091
Li 12.26754713636668 10.438593389223826 16.860462268858786
Li 13.849533387596834 12.344340160436728 15.453286741798067
Li 7.467454639410824 11.977252849508126 8.64121824507557
Li 8.149427954797593 15.66361944902559 12.078040989034786
Li 9.994260269050514 13.38854474899835 12.53387919704353
Li 12.428307499771135 14.167173911529014 13.658027792552282
Li 11.571824807477249 10.204479425815526 12.079733616487788
Li 15.456128368708574 10.21260520144034 16.60875467048345
Li 9.42840720905748 11.335694576160769 10.643665344110671
Li 9.077135530784522 14.073937712031395 9.794200966561316
Li 11.131602046058902 15.810042353908125 11.345067788775655
Li 13.999444606987643 12.762827459011783 18.161330536105307
Li 8.699535951448373 14.370471328685404 7.156459230079547
Li 13.553856068576758 12.054113500178763 12.50964112812374
Li 9.010790087934563 16.75063458594436 9.185272867667384
Li 11.591518025008577 14.869550063220014 8.466233531016606
Li 10.363944957333194 8.808926054168824 9.864290747885656
Li 11.837270080729544 12.834435686348087 10.482127659025831
Li 13.861125088034823 16.671543691148567 13.287283892057268
Li 13.852773136648358 15.190679621506542 16.035774506546215
Li 10.653967998906674 11.86867835768673 8.088727099942071
Li 16.434490699060618 13.280856346665939 16.216203730109804
Li 13.551872485588806 9.67447898986063 14.229622230471248
Li 12.978388923435837 7.752210181632442 11.90639597325806
Li 15.295743047296137 14.125096604397827 13.583386238995757
Li 13.868950822616057 14.777986223419697 10.937247923214196
Li 13.033423794536576 10.144803610705146 9.648969827906466
Li 14.046145013568832 12.769579010277269 8.684889976593961
Li 14.925751416962232 9.795386777797196 11.616030928549527
Li 16.710224141547542 16.07565774154512 14.79936702279108
Li 17.978787997330276 13.346667888930156 13.382498881258316
Li 16.62534551010638 15.68394699321107 11.723168958310247
Li 15.978697519199358 12.52366750418589 11.085256521417863
Li 16.023945062571634 10.231435725496397 9.034793610689123
Li 16.057718412110386 11.197308990359705 13.89747861694812
Li 15.949661937075735 8.085112627396452 13.66326988755553
Li 15.810573773507725 7.527308920706167 10.49955468190964
Li 17.677739208110285 9.915274684794307 11.759213370700571
