47
Energy = -72.98380203 eV
Li 13.83516124279943 12.864073762207441 7.419527729036877
Li 13.067708348889617 15.661336287341328 8.617991425227205
Li 10.973848138774219 14.15025046895506 6.957358040359616
Li 15.080836409546945 12.135879521099902 9.91993628477642
Li 11.466803614197548 11.035060926241536 7.304242183884599
Li 14.577349935803136 9.741982419436464 8.078937512510137
Li 10.142253099597381 15.375682283785856 9.693211118109856
Li 9.267993314149724 16.47159780620617 12.499900438257958
Li 11.901751514150018 13.053284636988957 9.452657779884289
Li 14.081776946174307 14.639763012577884 11.056479360258725
Li 12.256362035071263 16.898950250865823 11.407816583292083
Li 8.442529287390956 13.670411648800712 11.683188243865375
Li 9.166740198883657 12.50855617026812 8.939919060091205
Li 13.6340473942781 7.361910580160926 10.216585228928464
Li 7.231708986086922 10.953940521497485 10.821165491295737
Li 11.73688830797321 15.99895971572983 14.442213840972183
Li 11.197680013393086 14.301109823939365 12.199004915178465
Li 13.664975076537432 13.854649644522352 14.048054983963649
Li 14.634253846543476 16.467644680508144 13.287446959372101
Li 15.189415428059874 17.195685696294102 10.313696277437154
Li 11.907442775683215 7.995210450432179 7.821027499940772
Li 8.277296058494416 11.322624338716455 13.699311214352372
Li 9.614292774205348 9.480520720159287 9.24800003309221
Li 15.944987176855646 14.706431747774953 8.652116678856435
Li 12.469063756733116 10.034705933733738 9.71628071859665
Li 9.24835222047918 14.110321747988866 14.651156613238582
Li 10.143624557025383 11.299839153322198 11.42468651489505
Li 14.13589074788099 15.517902237666837 16.309912544474237
Li 12.945690899740788 11.935582546886913 11.85641209625397
Li 16.778310638091384 14.811235015648936 11.550856365044538
Li 7.9763309490568695 8.546291362744515 15.1219507634468
Li 11.117878714647354 12.073289373252697 14.150478699340896
Li 9.38680936063454 11.199573201092724 16.48745837667689
Li 8.86601997419629 8.760675035864745 12.202993787773078
Li 16.464990625849996 14.496668094214783 14.673480930939467
Li 11.822777721983874 13.44983409915058 16.403808816026835
Li 14.827364310320318 12.346141808133682 16.135715821450304
Li 15.760962460154968 12.27383483648112 12.889997511073
Li 10.70403143435049 7.004802866355853 10.597954378641337
Li 14.870334981827586 9.635746894916913 11.583571270919833
Li 10.534999925068348 9.397680875455029 14.563357405685283
Li 12.30555325174753 10.39496620591591 16.65647071756804
Li 10.4631815444234 7.9021435088648895 16.786947414527518
Li 10.344716614342408 6.68207072998807 13.779730980766333
Li 13.600378222815777 10.610532098889513 14.164074688902408
Li 11.943550031487204 8.9325380568911 12.255296925624883
Li 13.042320893377516 7.808316062201977 14.787580518861992
