41
Energy = -62.01098324 eV
Li 12.500451568738255 16.691256770628662 12.976916711057134
Li 10.34936864083771 14.810926320483071 14.541134266573371
Li 14.384042983796327 16.93869357456756 15.27580771220226
Li 13.094275589301724 14.185879210856065 14.764569330173337
Li 13.729405349311437 14.916369062042149 17.448899073093017
Li 9.630771898569256 16.11291597170035 11.773480229013622
Li 8.868138436214098 13.25497881593939 12.265119197737103
Li 10.34252390968347 11.213419873319593 10.7378318279359
Li 11.144299462142444 11.945313044013103 13.474540377405521
Li 15.192739901351755 17.679787724243862 12.015826966929907
Li 11.521274747286691 12.745520086417027 16.5892460746832
Li 8.906477911663664 11.823489041807834 15.038679180226797
Li 16.393917476977695 16.909533965447615 17.448024189584086
Li 10.316078677979954 14.040297678953003 9.63894210407652
Li 11.930568894237206 14.273620973022089 11.90471051632743
Li 17.171670860660946 16.933506521989752 14.326265366313265
Li 15.127620197794728 15.064451056778056 13.080484002498732
Li 7.939466872367275 12.066738366417791 9.527932321113232
Li 12.464004519304265 10.315656638204102 15.35395403128316
Li 12.045990473554491 16.565401669505007 9.944285473978415
Li 8.150790864429622 10.144171465870263 12.090694885530908
Li 12.967992003935496 13.80441049883893 8.299489537369812
Li 14.158340522514386 12.287220883759053 13.025811971354322
Li 14.422700675474 15.204973713463414 10.495948803763286
Li 10.068985706734372 9.144659183357456 14.125669559060915
Li 16.115362918316112 14.642877954288274 15.710348601145238
Li 17.392520912276556 15.29572430702698 11.648071093508916
Li 12.700122069274837 9.852879842954383 12.397879798485905
Li 14.63898918278699 12.159988315433226 15.99795855401612
Li 12.510626993513005 7.565163145838025 14.06477564096914
Li 10.650692368002403 11.609945478463182 7.975023239960283
Li 9.068636892707326 9.19044479971092 9.172037080071263
Li 12.92819947525552 12.124887063630226 10.453639291068212
Li 12.384866814467772 9.496101058933629 9.350764623889562
Li 10.614448059748128 8.404982775174023 11.458281315398459
Li 15.801883825495006 12.748811672372547 10.640557682984975
Li 15.057902450083628 9.828668570917756 11.012453039882535
Li 9.971115765486156 6.191380253583022 12.906220602065323
Li 16.826660186504 12.627160420741461 13.507681309841056
Li 13.153433850829629 7.124080013596914 11.250033966420999
Li 15.068471170935837 9.656701518431255 14.016380087762398
