43
Energy = -63.65104224 eV
Li 12.909481033631437 14.021525104797593 7.02762731546435
Li 12.737240696597935 11.192667203780003 6.472870581771687
Li 10.233085264814536 13.55998885881697 8.063753234862455
Li 12.198369103098955 15.08238186851612 9.708167054235597
Li 9.380561581742148 14.770709767730859 10.586796071946193
Li 15.019384456487304 14.842514668871901 8.765188938606778
Li 10.34067327420757 10.60224267494768 8.048142850621261
Li 11.978956863257975 16.582827750588468 12.2038132477438
Li 9.377311574188404 16.051374190268966 13.144793983938078
Li 12.645888199866526 12.171493257579368 9.34928491055347
Li 14.506649311472255 16.636670049776743 10.896362902023595
Li 13.624647455736678 9.512069990384997 8.562932422661028
Li 10.049195864835939 11.953133093006132 10.615087289861759
Li 17.13705755823897 13.210193275769903 9.877091969751689
Li 11.29506897757526 9.249108756693719 10.454868971913877
Li 8.333195668299409 9.54794282312526 10.009001778635392
Li 8.474852062777254 12.958956532132715 12.795211416011407
Li 11.349149764712681 13.77370507779533 12.567887276808117
Li 14.188519819352434 13.696008239764195 11.370320305526505
Li 11.947897778707043 15.48827593583119 14.865545162505908
Li 15.22803814518382 12.016098219287334 7.8523831635337755
Li 15.260733825254684 11.026030536260539 10.553753134075416
Li 14.074174590189006 8.361372304666585 11.078977298324626
Li 9.210955342466288 14.370189641728915 15.331543629639107
Li 12.642440393520713 11.216927707329658 12.145353118805952
Li 9.447779923043877 9.923891645218058 12.652429262101588
Li 7.904640316518388 11.025212114345303 14.87325699486102
Li 14.615134835644325 15.623932541934993 13.610752436844752
Li 10.779495075571008 11.930153141292406 14.713401279096825
Li 12.132994036468887 8.514147413698694 13.172185714808561
Li 14.170525539569173 14.95216958428127 16.648688560164143
Li 16.463462325560606 12.612068863787988 12.697157693209274
Li 13.639479202628182 12.970082186180264 14.390763844350358
Li 15.131370818910922 9.917402680218268 13.211046646507123
Li 11.47270024779511 13.74461580853556 17.111356783106462
Li 8.916268532589504 12.352419172318827 17.211294849327835
Li 10.331683361948901 9.092152377588727 15.313073747480262
Li 13.148152447500374 10.211742397526809 15.287635035543987
Li 16.636749286258784 14.196030366794472 15.034284878959097
Li 16.40029507030341 13.267707107164426 17.7018303597311
Li 15.893647343936843 11.315211120278754 15.523030464979767
Li 11.24730268746083 10.765542208214347 17.483977839369533
Li 13.813269316457724 12.048347446555832 17.432773304892123
