46
Energy = -71.41821822 eV
Li 10.971589034535551 9.253823045471146 16.11713734626599
Li 14.205119421254077 9.373761286269302 16.653585367196353
Li 12.352564932187478 11.628807617928354 17.83767375580618
Li 13.481309763701113 8.715764739711428 13.97780929700082
Li 10.461251363062205 8.37188688908309 13.218004010656731
Li 9.694885171461593 12.159507743340583 16.14149592923538
Li 14.9480001718561 12.246860426928096 16.07367696333347
Li 12.500180804183513 11.18325392335735 15.131362011268363
Li 15.905756107174309 7.294754452220581 12.741002564633837
Li 16.277776845188612 10.038770766484255 14.15435790357873
Li 12.21431598778113 13.91847648775188 15.59763061102866
Li 12.995250720437458 7.430962130515216 11.311095156076384
Li 12.165086798278917 10.255992398475282 12.007316836837944
Li 8.201588313149319 10.294984176300453 11.761182264595199
Li 8.105688905874974 9.647682077868671 14.845939062949078
Li 10.049842858138904 11.26369046393179 13.607881839510144
Li 15.002552444280035 9.611637708428223 11.502004481708695
Li 7.3065029061523825 12.450413338340251 13.876932252680268
Li 14.285376996912017 11.77714956729787 13.217608252599797
Li 17.683289099783636 9.47504071832917 11.351954960781171
Li 15.695849278032846 7.70496577303545 9.63700667466655
Li 10.283815452700175 8.870025221684813 10.142664069782029
Li 6.11020082515415 12.517663081260967 11.028924633744483
Li 6.816664327966059 15.145096508796334 12.371515775412416
Li 11.915634185872143 13.242107623171732 12.7543970928147
Li 13.098021762692833 9.60516150732001 9.244275474131651
Li 15.879887859749086 10.811631642539545 9.086710182527886
Li 8.804855083074411 13.230381317707964 11.561454157507407
Li 8.211312173430692 11.555360472121057 8.999174004698204
Li 13.79557396981012 12.423603651388705 10.440761929282546
Li 16.51214673326646 12.481999688464324 11.746885029472619
Li 10.654953145298544 10.42426422100179 7.512086569208984
Li 10.906445908089458 11.805717537197868 10.00753003509867
Li 9.559090872860239 14.5233183723001 13.963123405172908
Li 11.14430779161171 14.74276021780573 10.437590569451766
Li 14.677779542027087 14.431851334367353 13.902424715807168
Li 7.881661462998712 14.70886086736526 9.468047154934485
Li 9.386168303481053 16.559639765037783 11.522813959445383
Li 12.100554140096994 16.101495403565696 13.187949407114122
Li 13.187000829758523 12.239863278146586 7.780541584979809
Li 15.748706123246608 13.879362456913611 8.94476977659952
Li 10.2727113687999 13.566135829738217 7.843961323986749
Li 10.13084181961488 16.572423092429805 8.517650495434124
Li 12.3408297153109 17.40431487950121 10.450663214974195
Li 12.971859480150187 15.11683369697861 8.40717392704824
Li 14.163952077127773 15.064868286053061 11.181478251727546
