43
Energy = -66.37781914 eV
Li 7.659874109291389 12.62547224909265 10.44330639039101
Li 9.201236440139684 15.016347165004095 11.88668916396197
Li 8.631127226523427 15.232951668663441 8.821734308662212
Li 9.320218817974249 12.343860857112622 13.156354902363868
Li 11.63617322217781 16.30018404011116 13.207886980103025
Li 8.675052856273698 12.630676895444955 7.32055340276242
Li 10.014290605484796 10.548644030789303 11.18560054037708
Li 9.500059351361722 14.45835700287244 15.008284248925827
Li 7.319737501990388 10.08480500128614 12.210627977556527
Li 8.49244495750547 9.992405584536419 9.038428089474534
Li 7.691592461011558 10.976361947568694 15.279897489248636
Li 11.675318038642686 13.66026317300141 11.861939204856913
Li 10.644774408226235 11.587732094518516 15.910434258925326
Li 11.45982153636274 15.859140350132337 9.902120061514212
Li 10.21053147342943 13.069296948347137 9.66813002929275
Li 12.271636223910773 13.868588573068127 14.575943302270005
Li 7.454656538213249 7.83608529874073 14.414793246304802
Li 11.280025075322092 14.416764412701017 7.378263589091001
Li 11.940464402455284 11.16516011461072 13.451866140992948
Li 11.270817834203793 11.187424840860906 7.954631125449009
Li 13.85709804578879 15.398257174633136 11.39054845520659
Li 9.089675575376779 7.759477503396216 11.531466168043739
Li 12.71682744312682 10.817548362885011 10.642607157096737
Li 14.23772681966711 12.571872167018219 12.496597402848415
Li 9.608730310203937 9.437143147489246 13.9604809536842
Li 14.352475328507547 15.473899620584012 8.132875051376564
Li 13.540682117620568 12.836031266715349 6.41867036769343
Li 15.094301295066446 14.66169967278961 14.073376197674396
Li 10.39828813668589 6.749347279307821 14.304228291318113
Li 13.406847170168229 13.18823350578887 9.322006503188865
Li 11.318429763094434 8.503971108773547 9.348705605798207
Li 14.153780854471815 11.74711234511075 15.34157559287042
Li 11.829220381044763 8.488378780175587 12.349830545562419
Li 9.386124677758868 8.67757110619751 16.624235203975626
Li 14.488811635202175 9.630386540382583 13.168495117426966
Li 12.30852341665164 8.896108101179854 15.298065567444572
Li 16.235904626504293 13.905283838630869 10.900088134603767
Li 15.928753518403482 12.803213853956041 8.118040299652801
Li 13.588195757096594 6.638096173723062 13.468899364861771
Li 16.74399206405359 11.979025804132894 13.399771670098108
Li 14.13031524778178 8.187224601835636 10.57660510553428
Li 14.043607310722301 10.22845345560177 8.14123832229995
Li 15.658073638170068 10.950812319013316 10.623970290732734
