40
Energy = -62.30778355 eV
Li 18.33215484157462 13.49926445113647 12.629817467667008
Li 15.715039338824132 12.947067997436966 12.644595797499889
Li 17.20523741230688 10.456637553698176 12.288542875121335
Li 16.228131775231628 15.511872657908256 11.4347938236593
Li 16.237011943583276 15.045470844283734 14.611254208799334
Li 16.82399631597861 12.67102633903281 9.998568579372304
Li 14.633019043542198 10.354364930571988 13.891823086852966
Li 14.489024505446187 7.965819370696121 11.982262089501088
Li 14.07073164476506 13.798825736702215 10.26787201425213
Li 14.066687114982141 13.017914949932655 15.242773754525064
Li 14.701710185021211 10.788145663644189 10.828491546921317
Li 12.43562048732465 8.189517496902285 14.625934806530047
Li 12.913760689210115 16.55575111908645 10.428890220922533
Li 12.813492512908914 15.7307970655905 15.919650876880363
Li 13.917903197157534 11.816733633468152 8.029565404291436
Li 13.764379571425406 15.188179606334309 13.062009643326343
Li 11.31112234740903 7.102392405814957 11.731676060398325
Li 13.449345747140194 10.360786147108344 16.804819087892408
Li 13.007854205483483 12.36281465415339 12.663370716329373
Li 12.253529986760054 9.623358363759031 12.171367625867651
Li 10.364734316108358 9.71977625432001 16.76698905166835
Li 9.692321105398037 9.269358396432589 13.649473197257706
Li 12.039488139404762 11.721978807367794 10.08385365923353
Li 11.320402591706143 13.955052030468412 14.367232575689096
Li 11.423950951341519 12.879462169031903 17.009507989005225
Li 11.600140677708378 14.157380771927492 8.516133340518943
Li 12.651182744540803 8.993024193898481 9.36963114469586
Li 11.478382952887902 14.38095907534052 11.433614913705965
Li 10.617454322282793 11.335539752107314 7.724881835768155
Li 11.015405488180413 16.596431745969927 13.22850032085685
Li 7.6702073878257355 11.415924676600342 12.237948204854968
Li 11.78670073428553 11.013647430967316 14.813093594073782
Li 10.339545467857869 11.87229093882195 12.49147356644188
Li 9.5328020526059 15.340305348638358 15.901395834895139
Li 9.823085806806896 9.757742918706573 10.507870019554975
Li 9.070571586251273 12.150857996217013 15.105093525252254
Li 9.639464563768822 15.963840724220562 10.076377926043238
Li 9.332005280012288 12.885278828015698 10.061284840045937
Li 8.825458256239928 14.37682441164913 12.84057904805167
Li 8.763116630937462 14.051985213749507 7.558269708073035
