40
Energy = -61.00369423 eV
Li 9.381962827563514 9.449396892357898 14.259559073403985
Li 11.29467169970349 11.903497933734219 15.727133725625974
Li 12.482374751688122 9.237577073365152 14.976168321358406
Li 8.045540681294492 7.289929371184325 12.385604760954934
Li 9.260407577558738 12.456200548597492 13.633999617952302
Li 14.020291456186072 11.268700155136615 16.80180988151601
Li 11.169904706465736 7.644800420908836 12.473401711697768
Li 9.692654747561702 6.7963814314083875 9.82110673196259
Li 7.135657296721787 10.338211646497468 12.218832716873822
Li 11.289220904737554 10.605900899682865 12.577085805657594
Li 6.96503220399849 8.212289611416315 9.760499660986197
Li 11.839687365675486 14.49677643685957 14.092571235679317
Li 13.957202551469015 9.09602040124778 12.284120429890846
Li 6.558458746541727 13.363146408604642 12.150943061559815
Li 13.71500139315745 14.136386351737324 16.168793746211676
Li 15.579394271254653 9.991934730115183 14.632806028096018
Li 16.023061916264144 13.147558218111943 14.600169002737568
Li 9.299274253973216 9.325414887080338 10.918004551505923
Li 13.554814193529722 11.863928617239354 13.946327842102981
Li 12.219862653123933 8.772643218074192 9.814068821795725
Li 8.952086610377846 12.539334741575024 10.93622694132013
Li 13.65063034525277 11.369702352852245 10.728925001942844
Li 9.220741236421379 15.147713188522836 12.269963548178703
Li 7.345572150214041 11.221619315841652 9.260709477528742
Li 9.709621484719309 9.44065145293178 8.057803129341458
Li 16.15572718501808 11.395940545550397 12.052202581109768
Li 7.520444204307544 14.379589277304577 9.454854012135536
Li 11.65062771746576 13.275015589672806 11.758988587286344
Li 14.936803405272197 15.941973161898492 13.665965332931227
Li 15.348282171855393 9.60155321801258 9.506532028830295
Li 14.487593478028023 13.842335796112398 12.013773876784517
Li 12.446604103930248 16.049301511473228 11.59046331388352
Li 17.207899084598928 14.458779191147485 12.045331046088323
Li 9.85329312156298 12.647122880660866 7.800314278115829
Li 10.426124602685434 14.849508040529457 9.687773023747495
Li 13.010280191331583 11.007245645159534 7.777335493809116
Li 11.026294508096134 11.32624170099139 9.743395981356928
Li 15.82953479016374 12.810337052753148 9.426217627324926
Li 15.199331522507979 15.85022615560523 10.296714015417507
Li 13.011970357734507 13.771358056853245 9.179895998489803
