45
Energy = -70.34040256 eV
Li 12.372131272700072 15.846116437513288 11.225218627853145
Li 15.152233221988578 16.865004212669213 10.785697330484794
Li 14.594297428058846 14.045043297058397 10.491661273810584
Li 9.816270296258327 16.978075065481747 12.515887880689968
Li 12.88160616111442 17.836044232007843 13.439279812723848
Li 9.831219456544584 15.551700433803255 9.448617266351942
Li 12.968547042404504 15.358213475569224 8.309818251081323
Li 10.774502215593799 13.275151282733173 7.194903591208111
Li 17.159145887375516 14.307487265172089 12.077574622077131
Li 16.380645819487345 11.524528012156692 10.472796437143806
Li 10.637405627797785 17.22186676551657 15.635618383470995
Li 12.487540268022306 13.217091170815268 12.50793591964659
Li 13.78691948586519 12.191697146616884 8.130798599120567
Li 14.57782427828057 15.358051591830352 13.257334592130423
Li 11.726033677617757 15.332068016654377 14.115062393148266
Li 7.37323502107032 15.215371107248112 11.57177626227276
Li 11.683538746860556 13.339963213946609 9.759261903948731
Li 9.90828302216387 14.214607742788742 11.988889185314848
Li 8.781242894205274 12.544422235038686 9.818562094746872
Li 13.628889599585836 16.089199495466982 16.056342097826832
Li 11.16824655111708 10.624546388997318 8.952091282077108
Li 17.61468126126666 11.153105592249771 13.345710398490642
Li 12.16294098834287 8.94199614171366 11.312240814160408
Li 17.26970632668082 8.558047810841726 11.3457862072822
Li 15.157601411179856 12.528084499026631 13.024494052098975
Li 16.43642124520708 13.860201465377278 15.145785563827646
Li 8.922677167298659 9.304991216970821 11.22858299274831
Li 14.66770629029119 9.106706111586812 9.585833597162372
Li 7.95322148544817 12.266161964353767 12.8876399555912
Li 10.58538378073884 11.337299808828018 11.763853755625226
Li 10.531604116956332 12.675104822621845 14.461034400593743
Li 13.407575198994701 13.15770152149103 15.300730016848245
Li 13.521149777230315 11.344894502510364 10.841922071854833
Li 8.663819637590152 14.897248983102473 14.547138832442
Li 11.219121158278647 7.84351872717914 13.62177620019139
Li 10.92229560321747 14.212981979527456 16.766269630851532
Li 15.111086847791366 9.665817955326848 12.602164538805377
Li 15.252369561939329 10.805970423659716 15.427339994352474
Li 14.451299720024801 7.06296117927714 12.293211604351189
Li 13.75168610185847 8.280988707269547 15.044819089820411
Li 8.548225689396087 12.113755237123016 16.294264090434265
Li 9.571285711849674 10.105671691486869 14.17463055565116
Li 11.652119184351609 10.760270416114462 16.371682544537123
Li 12.654933419141456 10.579908637516382 13.731078632650123
Li 16.77749857421106 8.174769365352738 14.28601721007442
