46
Energy = -71.44040423 eV
Li 11.026488814335028 8.859551127802467 15.931816855251416
Li 10.38843108092529 6.761466412724753 13.724357394200048
Li 12.832094706488677 8.135428761897131 12.862307434265324
Li 8.158116841314095 8.338563722447807 14.955054384009609
Li 13.64731368962963 9.719132815138492 15.064496816489962
Li 11.246268118057158 6.734030041198627 10.554193185558736
Li 9.195494206427151 11.179964712222333 15.606404948652736
Li 8.551469715523732 8.069594180172071 11.775511690216744
Li 15.978119792709773 9.293564244578441 13.096600919636325
Li 10.270374631369487 9.645769999320203 13.306653906519683
Li 12.237262697208552 11.833065431391036 16.85784179125549
Li 15.023563365290364 12.148207427200777 15.010397842396221
Li 14.180128961391292 8.242087236662583 10.342058236379126
Li 9.245713616181725 8.478563202996284 8.815720743357625
Li 7.230632589865502 10.578241009344092 13.19898130334324
Li 13.925069775994459 10.72490229916006 12.076677001523828
Li 7.136726922451022 13.281497748385169 14.634929224559716
Li 16.20204058217375 10.56893040691719 10.022576584785462
Li 11.341119677473198 9.398724614202745 10.574432386967521
Li 10.098103045514538 14.021578814511445 15.440106628718294
Li 12.13858121311633 8.399336288026195 7.9526016071543895
Li 11.897715470294148 11.916820306767496 14.131150107061165
Li 16.558856479048664 12.522980772755027 12.367730788434653
Li 16.011781825794902 15.014905090306025 14.248130055995652
Li 13.360242067842188 10.781235353834612 9.070111061051653
Li 6.915707230584421 13.175686393312626 11.517183354243691
Li 13.058078574874457 14.583659045574784 15.320712867931391
Li 8.87625026102145 10.956874295098531 10.70385401149382
Li 9.267896847788453 12.606263182277221 12.956273901899289
Li 14.697644361993559 13.0098877687836 10.036804045743397
Li 10.57350015815459 11.1947460839138 8.30492718376986
Li 17.314061276756497 13.508229686919226 9.440073121048009
Li 8.615167084969135 15.470421436153046 12.94162901659557
Li 15.74752015225738 15.506507940678727 11.234781429151315
Li 10.874820819667589 16.92085999299624 14.597985821820341
Li 15.300364073766007 12.230015871323259 7.389445948247987
Li 13.99964880184887 13.661910487371681 12.78436558680276
Li 13.520141863980854 16.68103775561945 12.999681328655335
Li 9.790461778726648 14.172328159274677 10.292239215028898
Li 11.763284362390184 12.35247898010582 11.09741742965933
Li 12.469376288093558 13.512772695485014 8.170689325391244
Li 11.310811124760148 14.726168674022038 12.915248747433127
Li 15.034824707056881 15.317726727306965 8.33361196991227
Li 13.963480595192308 17.793767201477937 10.1377494154431
Li 10.901566300027072 17.161752920337296 11.41500074068859
Li 12.852515862291218 15.228869703475773 10.466747768456592
