46
Energy = -70.95530214 eV
Li 12.767836244408215 5.602133668105948 11.675713005693362
Li 13.772195031439757 15.651642823866514 10.963047154326182
Li 15.285452437919597 7.531275355040742 11.323029249173942
Li 7.9921722367547146 15.80256390072474 8.9977401777974
Li 7.058249186837063 12.968201017389415 10.091992087422495
Li 10.475278474926096 6.513698796968614 9.801678947790085
Li 11.923609737467942 11.207025875665158 9.697594218257851
Li 8.979769650904512 14.833611629168454 11.711343544247649
Li 7.892257146035162 13.368799042954004 7.103429780287643
Li 10.2599017140727 15.326331829466689 6.931954288380426
Li 11.331160393807544 11.569660698604814 15.919354790667589
Li 8.74560649005562 10.762025247795492 8.710347268674463
Li 10.747319204499043 12.138007132959734 6.949014047455196
Li 13.117375466288316 12.835476655227371 13.932695102533948
Li 8.917025835816457 10.185101484700409 13.931816376363637
Li 7.110478088770281 10.047504929744138 11.41592639498822
Li 12.463990316496576 8.271803394830165 10.878155038385685
Li 10.95511304763054 16.217089918879307 9.935440616345002
Li 9.808892360564418 13.633936087113145 9.13998243354545
Li 8.550594781666375 12.545829297300045 16.052152693042885
Li 9.37910808441449 11.866084929940845 11.373630386492659
Li 15.319834195194941 13.446704780787263 12.114503811275974
Li 16.822731600574375 10.751035541656622 11.23825703384037
Li 10.140149226834366 13.072629234546417 13.80782187956112
Li 8.674951722167577 15.324908168948006 14.653272585530427
Li 16.007909910490646 12.01758386411412 14.389523943088943
Li 9.844746126524639 9.18164691252228 10.83986219942616
Li 11.576070592510233 10.370055533916748 13.036645089052957
Li 13.835259939999656 10.251505139798121 15.318153258416189
Li 10.372588880499222 7.350407779708801 12.911714478257911
Li 11.512431990936173 8.977804597292648 8.069170676410748
Li 7.288041107052979 12.754998311165092 13.212036117266171
Li 14.258202334464466 15.320396106177942 14.270907180189791
Li 14.619114487246545 12.473251069774285 9.678449396757276
Li 14.541428542435776 9.524632188160334 9.301318955240946
Li 13.490464092648523 6.651268101693835 8.864753511994031
Li 11.463523732332352 15.832828454795205 13.081288025982493
Li 11.446788413281945 14.596252167127364 15.823041288365088
Li 13.536081464958693 11.241225839215208 7.130216630210059
Li 12.587358586240496 14.074165707443024 8.452821883480434
Li 14.117812828404205 13.07846856597312 16.547196689629416
Li 11.089441182845931 8.676381297875148 15.545051719326546
Li 11.98861996148666 13.486000821727988 11.39190851876404
Li 16.121831156341024 9.092408009078907 13.7466976240203
Li 14.228406449732223 10.580743743103781 12.095705526727265
Li 13.289135049628374 7.875903654010656 13.631963179782703
