44
Energy = -68.57253449 eV
Li 14.583809676967233 11.69306232813551 7.787261511905575
Li 16.513369488933836 10.500801132835777 9.948664381790401
Li 14.949385682777985 13.239675132506544 10.604412889420685
Li 14.309053047837185 8.428218418385253 8.543186519417228
Li 12.07687478412029 13.01302144560911 6.28268452357741
Li 11.803757548429976 10.221727281719462 7.875021111217745
Li 14.017223501713545 14.781248618438655 8.051820791651743
Li 13.187050205701963 5.896313632813285 10.209988151082102
Li 9.563382151962841 12.354349405447682 8.080082231804205
Li 12.327430570882003 12.879711136746874 9.035570438173465
Li 11.332993807175786 7.11134357536726 8.135116055351439
Li 15.668548841060995 11.314710174328628 12.910526586272573
Li 14.963223666655633 8.281539292625178 11.560184741413677
Li 15.004345365631023 8.687444338491767 14.682818529408138
Li 13.788418703966208 10.706054714250953 10.366948192143292
Li 12.663909865707563 15.16050902601228 10.960265368407914
Li 10.013258173272503 13.771633639361724 10.652127665406756
Li 7.877856109468703 14.968309488506277 9.434038919052066
Li 12.141992930421331 8.467201420150039 10.397903682583182
Li 10.876769069018104 15.271508481363997 8.367389501415106
Li 13.23466531266981 10.125809662394701 13.191830116326718
Li 10.615907377172482 10.875356806386312 10.443751857310296
Li 10.031014517616466 6.856582301309111 11.03761400190015
Li 12.22057376788285 12.45072330596663 11.969779706359505
Li 7.7099444914675095 11.870429874128082 10.489067902079261
Li 9.0600195565733 9.126605590175712 9.050383586706998
Li 12.562406589523924 7.178224309061909 13.046233809689284
Li 9.938664838510167 16.586768024810965 11.434040955937308
Li 10.655039855987935 9.372335072299673 12.82504307963131
Li 12.364174113509625 16.806158266379477 13.614866064396892
Li 9.327459461064578 11.996535688719705 12.856161982564167
Li 10.816217365180167 14.591298046080007 13.364727466221522
Li 14.165154321603882 11.528516999953801 15.643238363490244
Li 13.83571773356181 13.886888668390053 13.704266900873044
Li 8.00012296781683 9.22518465431544 12.056313795600804
Li 7.901323868731784 14.560081472373623 12.55400798830258
Li 9.508980469570567 7.256273398649203 14.09729963719671
Li 6.651298878699765 11.806114579844252 13.520148530230381
Li 11.886275683084792 9.076186413313735 15.468730662117958
Li 9.474086954807321 16.626162639799084 14.624765959251452
Li 11.445027053263129 11.978018650835914 14.724974805609726
Li 8.874645427000596 10.202410746671795 14.989748233541793
Li 11.802171200585274 14.767771588583669 15.9360759336911
Li 8.840322240310933 13.512692491079148 15.26874322753346
