48
Energy = -74.0980502 eV
Li 17.523093256053496 14.943357074710896 14.52575732797426
Li 17.35495881078109 14.944852288994765 11.421573570999312
Li 17.53291764963487 11.595212263422289 10.373126273708063
Li 16.528940830104418 12.467283587064921 13.020703732629277
Li 14.660467820442303 16.03106626756381 15.599458038392239
Li 16.22294663276292 17.38994911995482 13.179154581866122
Li 15.408156925929571 12.987271084104062 15.78175824476147
Li 17.12376922193626 9.522279883470999 12.590890822045097
Li 16.00066426157571 8.591473275389973 10.064180300587449
Li 15.029586078566991 14.87453300084929 13.171998389638354
Li 15.207976732164955 13.479141100680867 10.010963194072138
Li 15.29218894917486 10.883884203621026 8.449167317484548
Li 15.071701373949937 10.110471557375162 14.582282093194829
Li 12.599262435357662 13.847667305348242 16.665747309236846
Li 14.447337915884049 16.346999146001313 10.838734802708187
Li 14.632746751334945 10.827007514435644 11.52440827130711
Li 13.045919439725903 17.413194829780014 13.300117820537968
Li 12.08570369090226 9.589422739069601 14.034433913712933
Li 13.961222030569758 8.091362848825632 12.409306136527132
Li 13.457916938850252 12.370089693797254 13.962734200326523
Li 12.972005007122194 10.86896439822035 16.602324916634895
Li 13.025875945292903 9.25202861355136 9.744642475479308
Li 12.885713389964076 13.822716362276893 11.544035678291479
Li 12.710311512483344 12.050029531267523 9.128678018849165
Li 14.134425567839559 13.148787624597178 6.961580371976309
Li 10.071076584610829 9.511447961824597 16.250442077554624
Li 11.497381170714384 11.307762332095637 11.774458640440564
Li 10.783852978910522 8.574933072293373 11.487190500959578
Li 12.075674514118717 14.954482491147402 14.153330494603301
Li 12.680618791101143 10.35218078569066 6.952099102789788
Li 9.957487583067467 7.419455522902466 13.971977016035229
Li 10.301977022312245 13.482567155685905 9.940121323665277
Li 10.824940169222364 12.089550728708057 15.018056353305871
Li 11.146512159290946 16.051786252618864 11.287526657490721
Li 9.966961168300154 13.63572289113715 12.83463793743703
Li 9.132966228106485 10.280505382911453 13.50750507099294
Li 12.576780929128317 14.971000659488244 8.79739053097301
Li 10.134528887879249 10.505173915242576 9.203054167323755
Li 10.89668405630871 12.891045510344371 7.115465429276226
Li 9.468146472635173 16.39275735440744 13.679247516406871
Li 7.3364705973090825 8.694660583378013 14.857600661522959
Li 7.77148347429272 8.683398911781326 11.714499063923087
Li 7.964184408994006 11.65463480713959 15.798897511660662
Li 8.217953055452453 11.83878057689373 11.24016717997575
Li 9.594202228126045 14.459252137187086 15.978345780157563
Li 8.095710836558753 15.061854343895607 11.132569118852373
Li 7.462867552714374 13.8061334220882 13.80988117499293
Li 6.229582268326516 10.988421987825822 13.311232881388262
