47
Energy = -72.83789905 eV
Li 7.456174119321724 16.02512629367704 10.812913751832891
Li 8.077634785521406 13.830934506127486 8.923799946643086
Li 5.739098964795322 13.506098179738734 11.33230318028114
Li 10.013301990654721 16.443989002746626 9.353027775033445
Li 8.08067973321084 14.182190405388152 12.759240754148978
Li 10.165191383469324 16.37981128438589 12.700098839773407
Li 8.016276261294362 11.64467064379767 11.163157390013382
Li 11.604798632328453 14.099080338523697 8.185049218689045
Li 10.128424168679576 13.930930548658429 10.770311184052913
Li 6.860483573981778 12.03595766790517 14.112799538898821
Li 10.265021597483921 11.497441025109369 8.914219624641824
Li 12.573641157288684 15.678625589791627 10.62201573578273
Li 9.306877642663034 14.297171948150307 15.424485159984643
Li 8.690948685003034 9.536585818090007 13.351235027625933
Li 9.73890667095361 12.089706819100117 13.659398584788143
Li 14.703392034480492 14.32169712138891 9.05108646099295
Li 13.3944684094509 11.344153404860723 8.288691686862757
Li 11.715620128323511 14.101232956796986 13.24328423024323
Li 12.82571393110773 12.691376125517268 10.562357226734612
Li 15.453335264055985 16.744505512668447 10.979581318255347
Li 10.867121212759812 10.81329693841034 11.546568557784033
Li 9.152511359459728 11.19938978663673 16.30914886142617
Li 13.383977843536387 16.589367762524702 13.262073460876808
Li 11.451810309529703 9.899881876879256 14.786700467829473
Li 11.752339955282409 12.542128915996313 15.782823833051497
Li 14.657952991211824 14.229032670278196 12.088765205738772
Li 12.003222673316694 8.771696816922885 9.331041247193037
Li 16.290731722267424 15.822806684093221 13.961976827681427
Li 12.144901911438895 15.47575918028979 15.75483270869087
Li 17.267513377471644 14.208028820885994 11.298806335699805
Li 15.799989315803728 11.768477577443047 10.274345606634292
Li 13.030553544670228 11.646497212000318 13.230533696121311
Li 15.313677953578786 8.985022169995462 8.988102885732896
Li 11.564437300746475 8.268138027483038 12.35167984373443
Li 13.502068831165445 13.347971228279272 17.81718222350806
Li 13.745320455097705 9.905225877538562 11.097205230002732
Li 15.77339177071968 11.686825769976133 13.088479322251905
Li 11.997322505247153 10.43073777708484 17.649271252193298
Li 14.377909225044164 13.805765985619095 14.897012149979481
Li 17.738090524989353 13.23393021445385 14.069389657355153
Li 14.109361286206195 7.127932339121971 11.143075679635373
Li 18.46005374682284 11.323652173027831 11.890149754421971
Li 16.46655529626616 9.113242356514151 11.909598181301845
Li 14.222531899698206 8.969906415900148 13.85569985243429
Li 14.379292813069782 11.116918184164046 15.879321992954214
Li 17.2877493874819 10.277642272746562 14.863700469840492
Li 16.465381607098333 13.024093616873076 16.671408364106288
