41
Energy = -64.04680892 eV
Li 14.099538088102355 11.177235253989016 15.326352358136345
Li 14.44735396681217 14.180208294288033 14.203871435256127
Li 8.891790785163215 13.340599331296053 14.866562474557965
Li 7.969425052853416 15.822666597433104 12.937689646784182
Li 11.783008049764618 12.806191200754078 14.050012512057204
Li 16.70416665164931 11.914755156622684 13.57036054795177
Li 15.016342155714772 9.144241605120284 13.154894318482405
Li 10.848756780350609 10.806740911804706 15.952702912241673
Li 13.026539315780111 8.162434090226592 15.50635421538583
Li 11.02997333839388 15.669804578397715 14.02696751649533
Li 14.19606783440382 11.891459240594 12.549049609363184
Li 7.129480913138901 12.713539804419595 12.455476865267562
Li 10.480882525227107 16.357827197283548 10.944812069038523
Li 10.176583932501334 8.412914924209744 14.498544630863119
Li 15.68667630637504 13.893591015602727 11.151943711774152
Li 8.041400940385333 14.561374686512014 9.933628243155551
Li 12.661671930421328 14.401324273579364 11.7825925248093
Li 9.726427390315543 13.930769863638059 12.162734938798272
Li 9.518701387303128 11.064353779385153 13.14338759562517
Li 13.257564336794397 9.625280661252711 10.755131164842878
Li 12.258485228357726 9.890601043280304 13.49915820999611
Li 7.548777246889739 9.969952791947454 14.604490335468343
Li 13.637675000693255 12.427307619472952 9.685405521862743
Li 10.274878597668428 9.069018183923008 11.175802688546788
Li 10.923290255605156 13.77524749649359 9.421961462937913
Li 15.98528862285142 10.879196377219168 10.504973636427371
Li 13.532614704027567 15.183572585532916 9.004365601233326
Li 8.98893701842244 11.775749529603075 10.264514402515593
Li 12.058233355284631 7.198166450168046 12.317765702279805
Li 15.676956721601075 13.054973964809554 7.995749503555008
Li 8.350484211930556 7.290085631138129 12.781166210232955
Li 11.557292625743143 11.720529090557477 11.412452043745251
Li 14.02773896001888 10.199792529688166 7.8366410220103315
Li 7.433192495172976 9.61577282023281 11.387854852874765
Li 11.327097175965338 10.831208380451915 8.748240652581435
Li 11.830109256682327 8.017714125548183 8.76987452740549
Li 9.306002367861053 12.307511582926674 7.351637595153745
Li 12.542839969059022 12.767592731750028 6.993854847434039
Li 9.424746995360053 6.644232965169996 10.09385782702371
Li 8.969190118298341 9.297138181119346 8.528048783143173
Li 11.177076702139413 9.876148265761787 6.207511345610901
