48
Energy = -72.49126304 eV
Li 16.5129730429431 9.941078741107956 12.188516729512424
Li 17.096046999507454 12.492452785466563 10.707522414754475
Li 16.50732267053266 12.608713208837402 13.628143877886538
Li 14.855445635409254 8.319046998889878 10.460974257550026
Li 14.111993038759355 8.097583998277639 13.230866672521019
Li 15.102176846922466 10.309312214779606 14.843994179198468
Li 16.946146307931585 15.034221604323687 12.042276906598566
Li 12.839714572103146 8.608350715233353 15.86053655012272
Li 15.551036088364608 10.752785313470113 9.045602138138552
Li 13.731075859939219 10.67268826379491 11.734766728145404
Li 14.52023116296885 13.594455562536456 11.552438592062632
Li 11.46073512536024 7.0245487620988465 13.750567897752697
Li 11.976800653111875 8.008185901974601 11.095407007030719
Li 14.986833185867967 15.111032909045017 14.298842200145101
Li 13.75149201614764 11.80405768958916 6.895858087360353
Li 13.020878891809119 12.36620250158101 9.535609270233115
Li 12.901459455779861 9.458119808789968 8.57407113102514
Li 15.412881695464538 13.87899502467136 8.593486837031126
Li 11.34070638032526 9.961158951379229 13.76737478025984
Li 14.543866498176623 16.71236837108597 11.837658873387548
Li 10.541077018322325 6.911899534307685 16.584963337396054
Li 13.149039300393932 12.475185116715972 13.857724804655504
Li 12.614794094361546 11.455458937819017 16.544262945889862
Li 15.000508164992192 12.916643725665438 16.16797939434024
Li 10.241030967295163 9.899867808821423 16.568745718293744
Li 12.740786171160359 16.98651526516305 14.344154572074643
Li 10.953152431562197 10.88582471032507 10.868073943747559
Li 13.15100320057013 15.541766220869688 9.576187075572744
Li 8.936791649435156 8.1668059570087 14.582578196980716
Li 12.549865401272399 14.499329973882341 15.996700939956206
Li 10.06210897649193 8.810116161903489 9.042440770805731
Li 11.906566923673223 14.13570698844895 7.402699927636568
Li 12.16755157025027 14.857071434689422 12.590001434198339
Li 10.655108811965102 13.671571005387776 10.359236144603678
Li 10.006421934440521 12.923297086646583 16.00535049773916
Li 10.87281427799236 11.343709891103202 7.626089398674397
Li 10.292433124206523 12.755679390614137 13.032395463327292
Li 9.045949162191881 8.849308314763478 11.837689180602892
Li 11.717700156880387 17.48387806028097 11.466418274589389
Li 8.417215949660491 10.95981189011469 14.563453160026905
Li 8.39512998939887 11.168450148849672 9.228906021875384
Li 10.208478406792727 16.226558011682364 9.143852571754213
Li 10.146123499579572 15.593061596285496 14.765324155550815
Li 9.04229350658843 13.706345007772185 8.003928373919255
Li 9.225815119146102 15.923134074338074 12.089940832576266
Li 7.792877131315162 13.83076208649869 13.907915394152296
Li 7.608686823832924 11.522904620603951 11.925176513489207
Li 7.7214061121686255 14.04136016991163 10.597949140660083
