48
Energy = -74.74182732 eV
Li 13.346114214571035 12.791913555209641 8.70555261146321
Li 15.165288591802454 12.407186883470494 6.705936055473939
Li 13.731819580880037 15.204135358500302 7.309661471615306
Li 15.946379686900427 13.98468177565369 9.298112960643815
Li 13.392007118535277 15.532638473544388 10.373067551329882
Li 15.427620477190581 10.968487876056018 9.579534205909479
Li 11.646789207537442 17.20851045761493 8.756766036155533
Li 17.14049690028909 12.271187679090072 11.866976766535025
Li 16.140339897717713 15.09221937834913 12.367617622051329
Li 12.244732114039904 18.206652710411596 11.55177417052222
Li 13.635080731120082 16.37053858872348 13.36236891025668
Li 12.145102162157428 12.725016217083857 6.214782369648305
Li 11.535256392800363 12.920577592252224 11.083500377822048
Li 13.167248862299797 10.037734241386397 7.762704737631388
Li 11.01395123154423 14.399853110047353 8.621600452956326
Li 16.947824968599722 10.52013316233503 14.531337244490404
Li 14.245186512939096 13.000229846450095 11.509479934922462
Li 12.54230771922457 13.988093465911817 13.833297318406705
Li 17.992304415492757 13.564409423886987 14.565095070049669
Li 10.778811590393248 15.588243773457242 11.558177587927007
Li 15.619473866679856 15.315509955660193 15.464774829687066
Li 14.828293391513949 10.399019324214828 12.469140031100723
Li 12.74880826051318 16.203282214323238 16.300348169289183
Li 10.801511412864498 16.92802164260253 14.004289264686077
Li 10.59078400715331 11.414443061712765 8.714681961251213
Li 14.141706433489274 8.117691813423486 10.58050340096783
Li 15.323142258537235 12.89120441945399 14.145609990012028
Li 13.376717482443201 13.44060466864793 16.53304064628219
Li 12.289295515222676 11.154465595696504 13.509857999956505
Li 16.103662618686307 12.485670213719931 16.983501919424167
Li 8.723508310686942 13.381039063280646 10.712170157956646
Li 10.4129527739961 14.567911143803494 15.667584637895507
Li 12.625255257213269 10.423652832168644 10.575787173275788
Li 14.161182309326614 10.741618948554764 15.555404690759504
Li 9.866045452279346 12.811650271743398 13.43115808107228
Li 11.213000694292575 11.79097941721031 16.07139705911115
Li 8.188621526709145 14.95945636003794 13.496498045257143
Li 14.466416403629367 8.201740506749658 14.075605339181873
Li 9.780316805415682 10.530330304872892 11.552136079054916
Li 12.954690434210642 11.01779976027667 18.247034047817372
Li 11.08021880021883 8.340769903612998 9.646768924143387
Li 11.908936963163857 8.974120198280328 15.903975752234414
Li 10.855094854846707 13.34260230644038 18.337861247329602
Li 11.815725010720078 8.488613993380358 12.686557703359895
Li 8.395515644520659 12.500513067582242 16.049587821953146
Li 7.286748425858216 11.857046261719226 13.092732546694567
Li 9.465941371102883 10.034319894324398 14.53897927886793
Li 9.828780533326432 10.347371422997949 17.876981966229387
