49
Energy = -76.28952884 eV
Li 12.019838378298491 16.54626039823768 16.539619513404002
Li 13.191472081695252 13.437275207233249 16.485690889385268
Li 16.250307691156156 12.516541885539315 16.12785521143484
Li 10.172387638681839 14.243723919024072 15.993689471165736
Li 19.20202376179729 12.274407197801382 15.7780852337697
Li 14.858634135422399 15.80475230973997 15.768550510326676
Li 17.647636865637274 14.829597951472781 14.597714208249526
Li 12.202096580539589 17.863128785368875 13.764593902078872
Li 14.095351266343503 10.232161952150447 16.44149108381689
Li 10.97025078313201 11.129990200475545 15.962276058205367
Li 8.11483580198998 11.566629615533786 14.832026410163992
Li 7.693904752519144 14.556052213356038 14.226061772510953
Li 9.352984392813493 17.120332334418105 14.637136744363126
Li 17.357525784963187 9.725159347864121 15.392584157953703
Li 10.284986644426304 13.148844647665875 13.56524806849465
Li 12.864357923707162 12.09701188979452 14.059266521578392
Li 9.354933513019196 8.52025918997052 14.8575634574234
Li 12.433256333130574 9.057019259989412 14.179886779647152
Li 17.62455964555705 12.00542482594205 13.410668792322056
Li 7.742349649992791 9.749629622230811 12.347350039002635
Li 15.156415322765767 13.662973608483137 13.923404207345051
Li 9.819811477412001 15.652142222487486 12.500847095860088
Li 12.36053086007215 15.152744089125274 14.11099815538216
Li 15.193079571125052 7.692843823887127 14.387270291992985
Li 15.103965000712702 10.41934385176162 13.891456833268593
Li 17.86298776686409 11.667963219616905 10.345724918437165
Li 15.33224262882072 11.722038564606217 11.47115537668452
Li 14.914097096675507 16.41230352256708 12.883620985868518
Li 10.148707320716438 10.540473864936034 13.240259155449667
Li 9.700760979415223 18.237255434498273 11.61327921763153
Li 7.291288280351264 16.416593569139568 11.934319361889896
Li 16.81032983219621 14.294035119468242 11.636186126492493
Li 13.632476041289058 14.011769703629897 11.583324211832558
Li 8.102534619764983 13.104543333645319 11.627858780745054
Li 12.41060317181235 10.89771159714544 11.647060313390389
Li 10.768561287773903 8.312558201667576 11.733210412062984
Li 17.056850883114596 9.249979994327157 12.140970684708522
Li 14.08298281967372 8.75693067763388 11.544310908110736
Li 12.15942163156755 16.39688593254582 11.166211986446884
Li 13.088931309312423 12.17286192858562 9.38820255743459
Li 9.827972948775214 10.925231665979247 10.391557809142547
Li 9.410557401767509 15.473692180087863 9.692177721420233
Li 11.024935308105123 13.482277835823476 10.887004384249545
Li 12.651970534230152 14.785535052354515 8.566418399040575
Li 12.182199885886941 9.69288655176336 8.916859960735472
Li 15.497423833453798 13.451662780628357 8.965147300378717
Li 10.622480224904711 12.603655578908022 8.088570145985761
Li 15.31444957245808 10.314755758702495 9.063553272985821
Li 13.569623716845852 12.051736129720465 6.785467822413752
