46
Energy = -71.52137563 eV
Li 15.458012692305141 15.346206159020538 7.957980561241457
Li 15.935085627727547 12.453053489582576 9.22951275714998
Li 13.580340619007181 12.803839090722848 7.340187222851652
Li 16.34884358700782 15.174510409688624 10.897213423411833
Li 14.08584397810959 17.17997543685971 10.107895093780607
Li 12.38507378979925 15.939862704596843 7.876116528012814
Li 17.68034271194072 12.485153029353864 11.799462936188135
Li 13.213628647540476 11.642456756158833 9.978302084545643
Li 14.031177757209768 9.440091632866716 8.554905580173658
Li 15.57913861470196 10.036526812714664 11.218618426641482
Li 13.69604512083544 14.476392997290468 9.841012754171002
Li 11.272094260623422 10.49667092315647 7.965539028106401
Li 14.930024310586328 12.908567358500239 12.021489216430302
Li 11.16158067905269 15.652426389416357 10.964516975849948
Li 13.645749351974905 15.465066688338007 12.698842958716268
Li 11.562412741837369 7.404838444082766 8.575951785039575
Li 11.076746124958923 13.467599115154348 8.857716534081453
Li 16.373205674209878 14.385910441566946 13.951711942146911
Li 13.494987759661793 7.47176722254963 11.145718556712563
Li 10.030957078149555 11.530476923769765 10.462867115217977
Li 15.964200930791561 11.238713878349143 14.073588277473963
Li 11.665491478851733 9.31608654608692 10.622619646988968
Li 11.875650153425024 13.084500640098364 11.97927046775468
Li 13.286672193763875 10.45158043087559 12.740358935303455
Li 8.526320842164676 14.068190871135947 10.320001685188599
Li 8.94285273096998 9.032677135961546 9.417709478210961
Li 8.54101627400264 11.932778625068506 8.035396476374341
Li 13.556204323979971 13.085911079107795 14.603379801300255
Li 10.020652218544736 6.99484475899565 11.436423856747062
Li 8.92765151119053 12.678599872361788 12.82177096079982
Li 11.03058095448539 11.287910825367902 14.233082333027038
Li 14.70307805621624 8.326093313588093 13.946167492265106
Li 9.28556836878085 9.654322033670239 12.54359605730726
Li 10.98859758479169 14.425436707447542 14.352067179594659
Li 13.506742255495364 10.446650238004617 15.706514933048036
Li 8.689616404832059 15.575274442934031 12.927876139049786
Li 7.194010648912114 11.184265324063023 10.762976511756829
Li 11.663753682821563 8.24843731907645 13.586003937385065
Li 7.046416510876244 8.135291829522394 11.791383637627316
Li 6.315335693365846 13.587345813920443 12.674293470553955
Li 11.160855752484927 12.290718802976919 16.778224582523237
Li 11.09248394547777 8.970592050776931 16.30300506309397
Li 8.658246267412325 7.694179954508456 14.396798336293351
Li 8.176123559050241 13.361034972084056 15.292973512433155
Li 6.78375340496729 10.63369821802372 13.637665404637744
Li 8.798517854841995 10.46902098466058 15.630844518907853
