41
Energy = -63.15174088 eV
Li 8.596589430118296 12.212005184113355 15.128573519062003
Li 7.04955765032536 14.40457742530024 12.91986658815089
Li 9.842250306850007 15.169222609484239 14.362154370284523
Li 12.925299682720006 15.785430635372006 15.251214454863964
Li 6.948723848242849 9.730616010291161 15.422482765321398
Li 11.570006933900984 12.86229513310712 15.763683671799042
Li 7.059781957560773 11.263390284614946 12.757244051406468
Li 11.94854497062011 16.741877374671724 12.511399965446738
Li 9.654730525352369 15.135016989959144 11.082332925118868
Li 10.190241438331922 9.765396087012801 16.004491416195062
Li 11.153691070755698 11.025587785664163 13.655422524992458
Li 14.552072390882303 15.044819105968632 12.511586986398255
Li 14.563331950597593 13.162536514471583 14.943040729594694
Li 12.163785413781179 13.988043794760426 13.241248650907918
Li 9.373081106033522 12.97404420311593 12.661105779755152
Li 8.900172414708432 9.141990363889162 13.322080920330096
Li 13.352642192484769 10.23235402148154 15.460937264535948
Li 12.519547941045278 15.092702757968345 10.081661283709238
Li 9.646803455173353 10.565603964671501 11.104753438433235
Li 11.545234632821408 12.518601010197585 11.06630633644089
Li 7.971609410461077 12.566522240506007 10.142816781371486
Li 10.189812931978935 7.809305457316412 10.751037677698697
Li 14.210268138220382 12.927009352224518 10.45728448275813
Li 15.617737361199838 15.243002439485396 9.677864290927417
Li 16.30336667660082 10.738241948225777 14.59371020059135
Li 12.485717867149173 11.237323768032363 8.87978058217677
Li 12.3105808257754 9.630650573910934 11.285985529362137
Li 14.62557854964771 8.733672529191708 13.160512936648042
Li 11.741900684600099 8.101332551772673 13.625407260699976
Li 13.663667936354729 13.47370818704504 7.62325626440437
Li 13.961939294406124 11.500165820062863 12.866824749549123
Li 16.481117357753767 12.681270698313451 12.054395030284054
Li 7.324964473049819 9.22043573697726 10.467189421047003
Li 14.892422812682915 9.980645174556733 10.284755586213693
Li 16.31961324682786 12.427039540814025 8.767570172191443
Li 12.298535173069697 8.583011869126093 8.42355226120863
Li 10.544438911914401 13.2556853212148 8.504523054243354
Li 13.349664492982805 7.08270676825988 10.951900066242498
Li 11.678444343351098 11.239569288564002 6.239650733748955
Li 14.520956336584415 10.4912479210345 7.1952731530778715
Li 9.705864942784649 10.229073772901112 8.462430419334515
