53
Energy = -83.31206306 eV
Li 8.717386836952345 10.501597849803078 16.87671197659458
Li 8.743108552188318 8.432351984601272 14.400895431148033
Li 6.40052443557673 10.543434284012319 14.670430227947884
Li 11.218612795111099 9.93814321473811 15.391500028517402
Li 7.627255040914043 13.380123049492024 15.77239883577611
Li 12.302537001862614 11.089995501727795 17.98288123762577
Li 7.700502910682057 9.976975833497006 11.779087960573758
Li 12.23455085734063 7.610768291955982 13.862435532337164
Li 8.87639289827467 11.28188608597064 14.09050247393079
Li 10.593393639853204 9.649901882762554 12.448455129568504
Li 7.024692118769337 13.113202941096086 12.710967461279386
Li 10.531241679081907 12.747182147081633 16.139936814262313
Li 14.08916750413443 9.336382683374762 16.007802958208373
Li 7.555973210031195 16.056799646757156 14.07488280176016
Li 13.297921387708577 12.044499669876425 15.47613190837442
Li 15.419111961393321 8.248792691324965 13.215011947959997
Li 9.458060074131339 14.155456217552448 13.710190633958561
Li 12.99252813265805 8.361490878283247 10.90339072332458
Li 10.34485514831778 9.323244167590241 9.740445022628387
Li 9.58265716057718 12.249020153824334 11.09554357813762
Li 12.248337715433475 14.652623658884021 14.539437309489767
Li 13.333060628683848 10.140981523808415 13.081831217555951
Li 11.484618087722867 12.222252793340797 13.303761051370675
Li 12.917360753098887 14.248280215434209 17.309226614650914
Li 15.711720340085417 11.173217596512739 14.178267614754143
Li 15.477936965143702 12.078192775580828 17.154605794136888
Li 10.091745605423927 15.711256321069552 16.145350767047763
Li 14.060330420162435 13.075199804041295 12.496750780906094
Li 12.472510429901892 11.620972091777096 10.33279869512923
Li 11.617110696876447 14.505027178710312 11.675470861556644
Li 13.146137476444533 16.985762127352626 15.576701997467602
Li 10.44881196613811 11.663565673118109 8.091295227506553
Li 15.053441096773618 14.336055463816262 14.969637328092766
Li 17.755003989974075 13.09049526022672 14.410831153056218
Li 13.240582638886648 9.962589568023098 8.211313118783186
Li 18.14041277265164 10.33596763835523 12.599628033434366
Li 15.391521055613815 10.136805669098703 10.932250152666631
Li 11.01285492338823 14.391116785791715 9.040329770110786
Li 8.928729985242166 15.483117642992552 11.189891432833589
Li 10.73344715057493 16.83425824012825 13.369386546586718
Li 16.68237008257883 12.502110121728922 11.71941838808883
Li 13.772352240878147 16.22097948895496 12.598095429876324
Li 14.129116478326042 14.539746668792153 9.923711850776627
Li 13.053606318967159 13.00660686761978 7.41908755476892
Li 16.54435332136031 15.221303810659892 12.382675991913406
Li 11.934430046285504 17.03184975130441 10.373685427974758
Li 19.27295543964067 13.25869561966057 11.79192637196802
Li 15.326081334337577 12.147964209830409 8.963280975732175
Li 18.088256683706703 11.29093671494632 9.575394631031012
Li 13.089003778428124 16.084295924827256 7.715486933870814
Li 17.241010841336642 14.360129667653606 9.688542898538692
Li 15.384166747920473 16.928206973902306 9.748213886405527
Li 15.642365965823728 14.665867196538224 7.272101272446748
