50
Energy = -77.99190582 eV
Li 14.858319452072125 7.545586260446559 9.998251421566298
Li 15.18160563944796 6.688389940536179 12.953580049602905
Li 16.320107331470822 9.795756370180683 8.496486401972147
Li 13.501687637155706 9.94191862481848 7.326196449499607
Li 16.751605328497295 9.201044083493708 11.611806476157842
Li 12.236641745684391 8.590680378511852 9.66474543932586
Li 12.203230512289842 6.860101046472108 12.14464561596635
Li 15.492687254733735 9.319203092080754 14.463700911426514
Li 14.26819523874827 10.9488474144622 9.947647897063396
Li 10.256287108978869 10.402293226664437 8.533295116407034
Li 15.512590058860775 11.714621593591573 12.398377236232253
Li 12.897849401591746 7.60189512937967 14.9984944219939
Li 15.19044061220624 12.680429520895874 7.904489653059387
Li 13.85897476714035 9.081108175744202 12.2544702894989
Li 17.329545651478654 12.028559875920017 10.246027945575985
Li 11.234631047772059 9.449245571226424 13.722666423685551
Li 12.274358391396225 12.474062867707106 8.33312178062993
Li 11.472197311891017 10.787631716866063 11.197999903595163
Li 10.20540446274901 9.412970893704754 16.30603417716362
Li 9.699906331307243 8.566912575241677 11.38795201027164
Li 13.247740026414904 10.41035215802621 16.18533332362498
Li 9.856950458233577 7.088721793835456 14.241023029887026
Li 8.241221900693182 11.193669974392614 10.5922025334449
Li 8.616378266068315 12.973011732231667 7.823327926627756
Li 13.107868525738642 11.621754792989625 13.693503894446788
Li 15.800151364177143 12.265537103671814 15.300161851459437
Li 8.44652060886825 10.089254502835466 13.81525410475606
Li 13.296304320314968 13.664622551697828 16.17003093553357
Li 12.72002372813876 13.334100107155956 11.363217124705077
Li 15.229978227587386 14.152308562452438 10.629564245399084
Li 6.69995213386919 12.582867199916102 12.887820493014353
Li 10.196143858690357 13.21577214186108 9.967444425718966
Li 9.64526215690487 12.506016522413281 12.786237935828414
Li 17.315144289396045 13.868666316504466 13.042583791684793
Li 14.505701719693448 14.248644491623011 13.619740217608106
Li 11.616612022871168 14.47407423256736 13.728400214400729
Li 10.905757179961856 12.097007112673438 15.367988623109397
Li 15.98242859224655 15.324242162057239 15.667948512063903
Li 12.621669753547238 15.32779863870979 9.19639417641789
Li 13.283622960300177 16.40316517290283 12.022400212619724
Li 8.16925021711077 12.62766533935962 15.508637481575347
Li 10.517702096410138 15.614548870832005 11.342190390346321
Li 10.288456010115615 15.133137188781193 16.007031189440397
Li 7.763724089865386 14.316980338999914 10.603232065822796
Li 9.602764047767225 15.876344282026897 8.705304118134599
Li 13.061260560572489 16.468923805758532 15.14994555799576
Li 8.5101149363768 15.04999892757863 13.492892475830633
Li 11.20680681755307 18.099394657658014 10.386027931707298
Li 10.561120775064824 17.41237226604709 13.505136261127076
Li 8.355063328376898 17.291845206679813 11.248849698853636
