54
Energy = -84.59395877 eV
Li 16.503431067225677 12.917775253875032 8.408701065877933
Li 14.195457527971836 15.135616474483665 8.667884877377022
Li 15.300842129483593 17.02527697276372 11.47862388217766
Li 15.937706081445176 14.15213532749448 11.161225585695783
Li 16.57419371050197 12.437932942570269 13.55060493081042
Li 16.912057019501482 9.243641658570045 13.512018480307566
Li 17.03176859308441 15.546584668950338 13.86099821364201
Li 14.9447730110616 9.963877675093642 8.592867891417171
Li 16.690961220346207 11.069892033232419 10.87689535192269
Li 16.459525707829577 11.083204880494229 16.31555842974015
Li 13.985501437925974 12.39958474218928 6.820196155620893
Li 15.106459355712277 15.50874720033766 16.35481174058485
Li 12.964499904991245 15.098663978534306 11.183718532470575
Li 14.946347992284087 17.93225906548665 14.425459909836658
Li 12.251210888797932 16.340211827653725 15.398897161043681
Li 14.46651919188608 12.973052576863603 15.32071148634503
Li 13.895767075025551 12.46275141965519 12.423497529927404
Li 14.396001481739685 9.733793507878278 11.570020429008347
Li 14.011409598150637 12.368881332109144 9.61641919746404
Li 14.492994400394291 10.201848648104553 14.3582820177749
Li 15.226594758290604 8.218430135718707 16.062285888360044
Li 14.406865341894942 7.428908568311041 13.158778207308247
Li 11.930311697299974 10.125139262436294 7.84599920405805
Li 14.330264412066278 15.344668497658233 13.618516269250305
Li 12.81546253605739 17.76244942038714 9.861367722784944
Li 13.310871973672281 10.839516084848235 16.81940729561071
Li 12.26968299668028 17.61167394698535 12.728044977220708
Li 12.008611115420603 13.69640612960959 14.330518171591372
Li 10.870510302949898 15.695085869587897 9.48713689971408
Li 11.812352352643792 10.825935141652854 13.647227934141277
Li 10.430066385889496 15.463119339121103 12.831897489994143
Li 12.38969898763636 13.898893609487692 17.157842238119386
Li 11.56119271129251 13.09650853950801 8.467968599357588
Li 16.278512098778627 7.916653212598715 10.68386391798728
Li 12.118177436656122 8.482373144633744 15.273582383133471
Li 11.14889491242674 12.907774346653367 11.289009419471663
Li 9.534953906697226 17.505466389814874 14.452944476542363
Li 13.13987811100176 7.7544621973069665 9.847730117431965
Li 11.915022341345162 10.402935465882848 10.47259630299917
Li 10.498112136260344 11.704218075968697 16.043164088641785
Li 9.296259124774949 17.467613776051138 11.363464942581617
Li 8.709006924280958 14.305997481355295 10.687603690501495
Li 11.602648400878127 8.282699099553136 12.374905189527611
Li 9.21307730380977 9.411771867376123 14.642465321623288
Li 9.232493824387188 11.500069884958629 9.479812264904357
Li 9.364220947072106 12.671866188200319 13.373356135760044
Li 9.952767828650522 8.36950591019985 9.737404825508758
Li 9.51937783281265 14.57918886981794 15.660722963390212
Li 9.262236040907688 10.114494426412437 11.999410859663827
Li 7.333657856873881 11.949181329603187 14.958214541760087
Li 7.596798525203321 15.152484292389708 13.318269659882304
Li 8.909429365418081 7.251609794501069 12.57491409015152
Li 7.0442211067771625 12.194722890965112 11.872613619420491
Li 6.707132285172852 9.342419252221424 12.942595231035774
