55
Energy = -86.42783202 eV
Li 13.069326978167842 14.352776517368419 14.367882413881222
Li 11.549884676714253 15.12494543786395 11.918227503154826
Li 11.303968337311444 11.599204701270471 15.266178999661655
Li 9.814416561565944 8.981395236220983 15.40288128889859
Li 11.2475768509518 10.713428737357493 17.748240720350367
Li 8.65694901066173 15.583839613539043 12.038399968834572
Li 15.493723254988042 14.247379020226692 16.37619737365642
Li 13.045531815832877 17.34930393763038 13.230419616102617
Li 14.639737859592108 10.596676782189926 17.6282037520524
Li 17.67495230935407 11.162953289764742 13.005808414502875
Li 9.592426407180596 12.867828149985133 11.138653778130795
Li 10.451134019681756 16.522256452652307 14.384769174223626
Li 7.506712533416936 10.718560478333798 10.755546873558288
Li 12.968743349628006 16.300953134330662 16.368854591567963
Li 12.069907221886771 12.136433759973361 12.532212981574466
Li 11.889096692225408 12.338313462920453 9.347102590805779
Li 16.282934468531703 9.369655219590584 10.740257821766987
Li 14.114824320610706 11.64886521924602 15.218940371671271
Li 9.884570335788343 13.699133789355647 13.951013751300588
Li 10.706655852957676 17.729554551493152 11.236670459128435
Li 17.627814260823016 16.598730965614966 12.457778576409146
Li 15.033065244296452 15.65266674127146 12.198756729746108
Li 18.20604707317143 14.360706025683795 14.69899875111411
Li 15.911747454206246 13.412737893773865 13.507316687028231
Li 7.410002880895098 13.781049574103635 9.856926237913651
Li 7.22410932905047 12.979851004558329 12.957006115173149
Li 8.855978982724206 8.458802485140446 8.989555364865478
Li 8.980864551507798 8.12976858998289 12.213056395339516
Li 12.938556631911192 9.075087893245932 15.615820211517423
Li 11.637743425701967 9.589298557171434 8.043969143746676
Li 9.187245026903994 11.672251026571969 8.356191968672734
Li 14.133477127929753 7.895861448295612 12.34957297841471
Li 18.09097184088327 13.838152214204197 11.712398704742446
Li 11.700374277307585 9.359456520060379 13.058017943628663
Li 16.205899578999464 15.466147927424513 9.787667831751245
Li 13.303987187877452 10.087719320304217 10.479105447866832
Li 14.734714733062468 10.81329881673612 12.712753281087267
Li 15.820533751605115 9.168749761632055 14.72570841647538
Li 13.8371482157852 13.567356536155064 10.930685629987751
Li 11.527474967667978 7.594759612101428 10.492723883977112
Li 15.326216335730457 18.2804554931378 11.417754152898937
Li 13.833919485085836 14.12100961056527 8.159705169686095
Li 10.435309058690152 15.004438308646879 9.26137454012452
Li 7.838879960805767 15.088161202170115 15.165534724768655
Li 14.491862887135971 11.017377806502681 8.179816753260901
Li 14.198814241409542 7.990218849755111 9.008685461308481
Li 12.994512360126889 13.182693723045821 17.338025510473326
Li 16.055752223281907 12.290160958837285 10.34503076188053
Li 16.901161419551133 11.760363532819502 15.83760006666166
Li 8.497153435458026 11.992629826235355 15.972256294929217
Li 10.312891294128208 10.127520071300413 10.580495363222065
Li 10.454738347629846 14.324121500344 16.626185424098956
Li 9.191404804799125 10.858028539802094 13.278409424364154
Li 13.214760955015143 16.462647314524194 10.036216887462926
Li 15.630511245139678 16.66298031031386 14.701154173923493
