50
Energy = -78.15742427 eV
Li 15.30761921109197 8.203881255899839 9.964365866788052
Li 16.91589287441171 9.505722201681145 12.26679117636831
Li 16.302473700932545 11.216338067700933 9.614583088341687
Li 18.442307939017688 12.16788784592513 11.921985161032552
Li 14.017909134681027 9.999272918065502 11.571060565641655
Li 16.579244115178557 14.122871480497066 10.31280150620475
Li 14.798633011667597 13.428831463622593 7.582405297520661
Li 13.515197483224746 10.362490107209297 8.646911809816327
Li 17.076348124423756 14.421674213276765 13.735722565259502
Li 14.235226260754166 16.076038197244827 9.705972691238404
Li 11.738800532480266 12.301858377135293 7.416032274085944
Li 17.175122030245436 11.558692385744648 14.817328721004438
Li 11.788745133175174 15.07288749161151 8.257074741138956
Li 14.393297974891011 7.419781099790738 12.856347953769077
Li 14.755689960689454 9.919913445251547 14.338815380052038
Li 12.184321174449295 7.866500489658437 10.33143838563253
Li 12.572578694388168 12.481992202032442 12.547811268629115
Li 11.473251299200397 17.656470327511254 10.152018080679497
Li 15.732341445533791 12.15322128937889 12.314610351472677
Li 14.536505531083817 14.833194204871564 12.391448808290049
Li 11.432928334685243 10.456995742401364 10.688969061992726
Li 10.74210943194377 12.919085195181209 9.938134935321088
Li 13.717186903496696 12.996867180098617 10.002186760699413
Li 9.894967734928713 10.081268498046498 8.554100051691236
Li 14.516759615586565 15.91346493709257 15.279525004315806
Li 16.236478606629756 13.820093497006193 16.84504239249222
Li 12.38425650038175 11.159556799754842 15.056817733629936
Li 12.730538205021105 8.629434302751513 16.19523087874577
Li 11.919568874121504 15.20920466474999 11.216340519546842
Li 9.262735864874475 15.458694239863915 10.054664327265096
Li 11.829354339179227 8.822162471489127 13.305799476718581
Li 14.619358136490069 11.135952952206432 17.066530529516218
Li 9.670310315042547 13.745179204927341 12.510173364495042
Li 12.079287897346438 14.803680561434698 14.169162041753603
Li 13.13556561466057 17.359297341250137 12.701512457774477
Li 14.616023840229952 13.03205726423272 14.774644101302183
Li 8.765053661556673 13.133149003196039 8.096323614293583
Li 8.311302201869982 11.62913678958403 10.75458313186681
Li 9.206943003600715 8.755375369478477 11.617187587411617
Li 10.144341118667471 11.063493705757145 12.972402924545175
Li 9.643967688191463 9.912565933972827 15.516089390605172
Li 9.96316864266518 16.59023879844096 12.95737419276978
Li 8.018172560555977 14.703036376431452 14.640319680834411
Li 11.285225983117384 11.35948133079336 17.65424169048895
Li 12.950187287242386 13.735179713393983 16.910100230935246
Li 7.051062611151295 14.15657459792935 11.695700724104677
Li 10.28205279438631 12.879230959907849 15.236051870407206
Li 7.602094267396914 11.849539943369239 13.891681126222286
Li 8.394339188967358 12.629570866899986 17.030846173647863
Li 10.3493873232608 15.349667336929336 16.51748955416319
