54
Energy = -85.23407692 eV
Li 17.32780881355986 12.295612343772826 15.887515433298555
Li 18.16413887589995 9.99942345664285 13.787486123194382
Li 17.035172748179008 10.751067234243394 10.835371122136342
Li 18.254194647340405 12.994238477282623 12.955875558611643
Li 18.052973554364197 15.271503751390002 15.163349707577284
Li 15.432864626418176 14.849615494688331 16.96858566928706
Li 15.685208951406565 9.415814137928335 15.72335368230122
Li 12.64554561103661 16.703708213802134 16.975623262187852
Li 15.427625377533882 16.96190757441333 14.724696967257477
Li 17.160606473502426 15.830230587840745 12.194030383373303
Li 15.789568688557575 13.314652236323125 11.388160219168128
Li 14.379241098782602 12.201818152265265 15.887004531020057
Li 18.105096002441062 13.702196836824992 9.940720978209475
Li 15.804354412907204 11.326076749559135 13.500837232602125
Li 15.561223643022489 8.618417614248903 12.649523603772199
Li 14.208114027052662 15.596750992385546 12.340408405610624
Li 14.5350335662826 9.071709381556472 9.362286067198184
Li 15.473417636550058 15.534553550203023 9.519328668712491
Li 13.801763523021625 10.894601561340263 11.176098113388443
Li 15.773033443257528 14.1373126233451 14.242608594776932
Li 12.896473234522361 14.83307533326833 15.114503797402778
Li 10.379765958049251 14.42946658199526 16.66107097983274
Li 12.795848795372109 13.429090682616055 17.887344109306582
Li 13.135724917184373 7.508634638149603 14.988490612037056
Li 12.707241707000934 17.6078020714464 13.647438369615688
Li 15.065015028032914 18.115865042417134 11.64847775299564
Li 13.07762806182438 12.846096898552293 13.040111443786746
Li 13.295186158049985 10.036948187465642 14.206936836511547
Li 13.165218178768077 13.84126265407372 10.235739171254526
Li 12.816317117900136 10.037999955389555 17.132277084364077
Li 12.770845103171583 8.178658612044202 11.987418691396703
Li 12.694600322289691 11.558838165033483 8.469275650566333
Li 11.447027846720673 12.02298209644752 15.432213486533646
Li 12.726813872227371 16.771412466526435 10.175025348814888
Li 10.356121904723036 17.7376009855447 11.715085920063382
Li 10.207073134760746 16.531310947971438 14.726112410927694
Li 10.83780502468118 12.465746921373187 10.807897321213458
Li 15.441486721181343 12.43261377252137 8.73506645766538
Li 9.798551532011672 7.989055154679808 12.439133260756563
Li 8.587632148675798 11.850712078364252 16.169856412010127
Li 10.50046264606916 9.198224871773402 15.233187618268765
Li 11.24796443057213 15.142665119739183 12.419950082747459
Li 10.177892490890171 15.151054863785202 9.748289669517122
Li 11.297773559656386 9.517206030940669 9.888276493829784
Li 10.936610047569621 10.504096200755669 12.698779731063222
Li 12.614440472018154 14.541937230590298 7.724004829989966
Li 8.24663067797601 10.444502689544807 13.538241161374835
Li 8.253637477949024 15.641347501334584 12.476670702589029
Li 7.733591759990902 14.790149532164838 15.412494776192482
Li 8.608567859483982 10.344363043973274 10.625942621138336
Li 9.781198963587604 12.371446349102513 8.321144691628737
Li 9.428742747933033 13.226144121290258 13.734296186220691
Li 8.10270586737962 13.161003053525507 10.926844241070603
Li 6.579011464006732 12.876099985156031 13.495227828038475
