5
Energy = -5.01874695 eV
Li 9.869886578960484 7.155238909963837 7.959560925602074
Li 10.45444975503713 9.069589999411644 10.271621502778743
Li 7.424730961558816 7.593005130892683 6.319135056289704
Li 8.063680723001394 9.29779318995519 8.654716193209293
Li 8.393319566708918 11.090440355042885 11.001033907386942
