54
Energy = -85.00474859 eV
Li 15.583398648865813 12.399536005076513 6.86598993058189
Li 12.695491666332902 11.325411644685309 6.020346535655031
Li 14.838704093922052 9.362671427718054 7.042033814305586
Li 13.079162983564823 13.899160246425577 7.57605109366507
Li 16.484078354519347 10.672229786849405 9.375446926216412
Li 15.733238786078743 13.688920139493495 9.853091726775364
Li 11.754520367082183 9.220228916980497 8.14994746774528
Li 13.732719213562339 11.35449788329829 8.614778044195198
Li 10.72272486617815 12.128422038009235 8.335925483158908
Li 14.096704521900394 8.65336776119677 9.965113291796618
Li 17.45007972452085 14.842625743204403 12.410908206897389
Li 13.613520282565636 16.369629958693743 9.045620557413425
Li 10.546745167377498 15.200916218158945 8.69813577698189
Li 13.873475870987061 8.587763554944742 13.081284036206416
Li 16.510300799606426 8.904354851809192 11.87801386798077
Li 8.021759476862591 13.018926166646713 9.601623280434945
Li 12.951990510683425 13.893566499601743 10.442438367413375
Li 9.104756243673618 9.88777375158907 9.673438384585596
Li 14.456199378016677 11.059122927174021 11.513998887332745
Li 14.95595285384188 13.715916628134346 12.875730567287642
Li 11.705556103540788 10.844236203873871 10.728934565487984
Li 11.247531707423573 8.171916318379461 11.282951750411486
Li 16.433363079409087 9.725093355106377 14.965564608325868
Li 11.560894676950143 16.42658712048816 11.366012631135183
Li 10.248352248158406 13.592133446400258 10.9484371992288
Li 17.070454624664258 11.766500580439342 12.429750123527908
Li 14.754322114269723 16.21875039951112 11.713725907274391
Li 9.20129156030422 11.344220997695807 12.129725161870681
Li 13.231004195004552 18.120017121284086 13.504636259119783
Li 12.195808565043635 12.70699259382802 13.11749815301308
Li 11.383226106356709 7.240346859519677 14.306159465640365
Li 15.533289173752632 16.021486435813273 14.662314157596194
Li 13.370946103565077 9.053448320902929 16.01597794304453
Li 12.656878715354727 15.450907465410006 13.745190037467156
Li 11.5161975524452 9.980499579163347 13.67767818036906
Li 16.690248390840598 13.14648916278461 15.155487303778921
Li 8.487981555287137 15.863671826679019 11.131373480185978
Li 14.338876872810463 11.25305021186575 14.394428786402365
Li 10.37285692122736 17.14137668453244 14.487304256653742
Li 9.98385363255431 9.539931497462241 15.984805095908504
Li 9.860792302920729 14.67990782118339 13.33688706394986
Li 9.76754717655802 12.2506918708805 14.69168942265253
Li 13.857695679662339 13.844360919843195 15.7539593396056
Li 7.3789311741818615 13.398432472374513 12.717548796646293
Li 8.886937320460502 8.806227579768493 13.214649984415626
Li 13.084521946167579 16.57632331122892 16.469489706107378
Li 15.540253914643383 14.867198552584133 17.619731866759487
Li 12.072703937467457 11.680810949385465 16.265956918135558
Li 7.427089272624055 11.196094109366863 15.014098373562653
Li 15.005840840299092 11.64140407969195 17.260544463379713
Li 10.940707176183661 14.539752033872771 16.08876600889895
Li 7.987339416568369 14.452747074846613 15.561579421460033
Li 12.702776920912354 13.74491363936129 18.359616539741978
Li 9.427936455596758 12.336783785131558 17.522519310230372
