52
Energy = -82.08890599 eV
Li 16.40316179331881 9.796855458371434 13.342054571380363
Li 15.35860297558761 14.743232288044622 13.549434399202788
Li 16.830950407714226 14.219439960684314 16.167414613609214
Li 17.40797712476 12.797069039347134 12.525778868910534
Li 15.71975906852775 14.661148114755099 10.42800901130341
Li 14.902024200943414 16.784657093397207 15.78670084218376
Li 14.393117233699995 17.294123796824312 12.278028489838237
Li 15.45792502972497 12.079516688195485 14.810347789036024
Li 14.774266194669796 9.154461474355791 10.952170493884495
Li 15.597922943125813 11.613011440486423 9.008141422170041
Li 14.581812827384582 9.272553430072982 16.00401019998632
Li 14.978667925320172 11.910042001658036 17.74196127464521
Li 13.861278110099516 7.476572397757097 13.397458655856333
Li 12.44020585726886 15.975820192834302 14.336255648803238
Li 14.774818990707626 12.132807547002848 11.739640013786694
Li 14.8136462357313 14.318574092241066 7.282357128336798
Li 14.755541631796431 15.11768949995024 18.465413630698112
Li 13.581260853238325 10.252103684451393 13.511970845767857
Li 13.254902220071648 16.310956784254493 9.347656378692875
Li 13.872678113270723 14.182247276386455 16.17649149578601
Li 13.268082169434477 13.32660658935596 9.339653917068564
Li 12.339965005343327 7.607123871905069 9.892766876624194
Li 12.02933556814708 16.144654607855937 17.265760431570445
Li 14.23100597913854 8.948322343080424 7.774290850098809
Li 12.468269635969735 9.898396915598392 18.343631837228667
Li 12.667069076039855 11.43105145465487 16.10610316216711
Li 12.877565092997939 13.023891988720619 13.819202433229714
Li 13.109393116453866 14.853155471327922 11.775738275048557
Li 11.514326794838405 8.87015381320143 15.361001103751654
Li 12.768238099158516 10.379672134816847 9.609531960514216
Li 13.036898196917704 11.75132755222358 6.971023716178718
Li 9.793638392386342 11.090200413342647 16.73890237089819
Li 11.526894357290987 9.064033738686609 12.389152865629631
Li 12.153622349436647 13.064524559144393 18.395204229339754
Li 11.795942315181613 12.050451691095757 11.496565781729068
Li 11.597759169942444 14.485157869948374 7.3173622550837605
Li 10.683454014195156 14.573253585503418 10.22753956933877
Li 10.537903340665704 12.074181006830953 8.772930439982884
Li 11.01436425702987 16.95942251336934 11.900324961819345
Li 9.355876844589975 16.149256734597817 14.733153856440435
Li 10.569237951560487 11.393325935213714 13.945953552009502
Li 10.831836477910697 13.795191999931559 15.838018649566141
Li 10.988003188698803 9.44771212001185 7.5733614799676605
Li 10.384356694273574 14.242748054904583 13.006137905852874
Li 9.821389479193098 9.69964546332142 10.347046762787217
Li 9.89397409619189 12.189969133974456 6.173816677757675
Li 8.466914004128151 13.949085343202768 8.487753978920589
Li 8.09947846760619 15.240764881441198 11.817396808457534
Li 8.507482809284848 9.728099695666446 13.531812838640835
Li 8.187232137256176 12.979910639293616 14.39593438019364
Li 8.028761861220026 10.911769368307468 8.28431936088645
Li 8.794171895441758 12.256022882076515 11.356632975104173
