52
Energy = -81.08910847 eV
Li 9.947429394431474 12.842649591444003 16.93437658201832
Li 7.381816671313923 12.412932626162286 12.326298580642717
Li 9.803973712754146 14.14339846418824 12.071128467584899
Li 7.438366539969603 11.426526807590793 15.37293915484342
Li 7.644574410843306 10.348483578647011 9.98446277506774
Li 8.262081502365415 14.438236518523315 14.661672636122129
Li 11.16541748307856 14.497088263387486 14.630764166681251
Li 9.999423260084837 16.84971517506444 13.16258068986502
Li 8.637686504369295 13.356951651785797 9.436801646548377
Li 9.865750637201199 16.207075945583227 10.066279262387058
Li 12.221286515129512 18.284972148365075 11.509521842095552
Li 12.218868241142976 12.00425064101388 15.521366864358864
Li 8.674410039800632 9.492823957474318 12.980526371724444
Li 9.719082363680323 12.014044405402974 14.072296592407712
Li 9.911576900196653 11.42881202271482 11.182869907335316
Li 10.09030756411833 9.79731664996158 15.767205108874458
Li 10.186389145303421 11.064650030934384 8.281527971101157
Li 12.330577492904313 12.611890171910321 12.553502038034322
Li 14.08568687479458 14.450346421675858 14.122684210183923
Li 12.3806095019259 16.95960350970111 15.12916447932278
Li 11.725655907220178 13.662235558933716 9.718090214847699
Li 11.793160631777397 9.955204288250597 13.13861597951114
Li 13.066294773555713 14.461093464133356 17.013777471528638
Li 12.402927839287782 15.639050044898877 11.933848029401753
Li 10.315816412935476 8.721694807831005 10.4195225920648
Li 11.137419446773546 7.440595708119753 13.721761253080112
Li 12.96525732444717 9.196563865305446 16.04218853251651
Li 14.4442185410393 11.141649505445628 14.373259786656646
Li 12.690191055022233 12.104378124732035 7.270755393543375
Li 14.679559016394451 13.438381434135447 11.25683009995976
Li 13.766768478060174 11.631504503906664 17.874502762296398
Li 10.672291020129816 14.437262646428032 7.326595686320242
Li 13.007596685890421 8.081279714229881 11.162925489726994
Li 12.47754479880785 16.463434580486545 8.955951051120975
Li 12.53051682304006 10.920486465731303 10.104038591807269
Li 14.336834819528049 8.175121070707936 13.734734039953654
Li 15.430451714689923 16.08175916763552 16.13068620179865
Li 14.72997729264452 10.487213537488106 11.75997434473677
Li 12.975440199554185 9.049408154102236 8.239993540226779
Li 15.38146512457189 14.203754464016043 18.884213692060754
Li 14.513416684396029 17.3291766168454 13.358202154668243
Li 14.370850059917037 14.279024438060134 8.411217198815855
Li 15.99416506321775 10.026230454950745 16.241590859477835
Li 15.627163582106151 13.122426825038216 16.21255307913612
Li 16.631818757196253 15.304433915346548 13.088840380238151
Li 15.142431324249982 11.376185779739771 8.89253450678628
Li 16.92509792429743 9.412415118644766 13.225787558447902
Li 14.926129850614737 16.35116009301407 10.634951495216578
Li 15.79067265023296 8.563254572602933 10.194668974637926
Li 17.0642919718089 14.132142582266795 10.109068370229284
Li 16.700800061875306 12.447828239865137 13.41314126745645
Li 17.34911630437309 11.217695124716093 10.824368071158604
