55
Energy = -86.39145892 eV
Li 8.28276454572225 10.815991869704245 16.068490855912575
Li 16.004240397525525 13.466919493161365 11.512618038934908
Li 14.59338407073259 9.922753961656571 14.806344366779737
Li 11.961079186916168 12.295474498334107 11.04713150431231
Li 15.223859054382004 13.082844150645363 14.619908172423587
Li 14.446768819108188 14.88779318225951 7.438881112601252
Li 10.047029307208678 10.855264970427081 13.963364880651817
Li 7.651070613111558 11.644529523766645 12.896129618475891
Li 13.791949407234881 14.7003654152482 10.162335694360122
Li 13.520901412096512 11.633551457917767 16.936055917908295
Li 10.617376690868781 12.643145284056416 16.2518845454765
Li 13.24854418715466 14.386490516206953 12.91886609835007
Li 10.903849750277741 15.264853625288898 10.93892425874665
Li 8.128770940207408 15.104192967301184 12.309860156871277
Li 12.91317547253553 14.427571857170422 15.916212500577494
Li 9.973989469097399 17.78319338411421 12.276041154935644
Li 14.314204225587982 12.228082499110421 9.00986691051591
Li 18.80492830172287 12.51591449928122 11.354978106792958
Li 16.57306900325648 10.755504386802162 10.217814106951899
Li 14.290501400376712 11.314364262643725 12.058722839564425
Li 17.778351929543366 14.05326712432759 13.706193584275876
Li 16.938611339891217 11.12321987254741 13.217327064015317
Li 12.531316142230116 11.923512645378583 14.268051962710974
Li 9.047408123317343 12.940953227249082 10.331927583848957
Li 16.81712565977427 11.609776581126656 16.23117272186895
Li 12.367637910226595 16.814925572894186 8.86404404212943
Li 8.608577246075928 13.405862256393817 18.101363432559957
Li 15.641247122844963 16.661151489137993 9.751932330054155
Li 12.95177536733349 17.187157584704856 11.766271537872667
Li 10.30669913213679 15.619538397097958 16.860685961745343
Li 15.666045829979113 16.063942580668822 12.697389786822225
Li 13.37642334421966 16.94439200945254 14.615969775633202
Li 11.948080764120114 13.763706094929818 18.633279089841363
Li 9.991799390216048 10.187465248084115 11.267970596466636
Li 18.77420899961593 9.455664400978952 12.086655698171198
Li 18.15753415456604 14.309195711115493 16.418010628795315
Li 11.342975038377695 9.570641598650704 16.0062849261046
Li 19.372951520044797 11.60468081092601 14.423055640986892
Li 15.115538969773922 13.975441582515119 17.737126854842995
Li 11.626497077244247 13.65571169848185 8.491761991541042
Li 18.21433376033328 15.60426717852409 11.240802748640304
Li 8.304833178976518 16.776757561415497 14.881945562236623
Li 10.181139525371238 13.292465072543674 12.949610267853199
Li 8.975663037628912 8.45272365556033 13.811943116760293
Li 10.895519512879952 18.276759191358067 15.30688967513161
Li 10.772148123281848 15.75366743093284 14.02341782757093
Li 8.33034407991367 13.747445163819418 15.120176269439156
Li 13.241460883673422 16.586496285695407 17.599127273849962
Li 15.59944822086101 8.67471870218656 12.221476432810329
Li 13.18357275340425 9.604177803152302 10.119681558786002
Li 15.77833382786924 15.746205291348764 15.58329441096791
Li 17.539751044212302 8.910664004231498 14.78440186261329
Li 12.230828546891996 9.204138143695685 13.023919881150057
Li 18.201184847398952 16.882119689465227 14.194198249213235
Li 16.92729851994374 13.916507713607626 8.986329990841885
