55
Energy = -86.49402462 eV
Li 17.579657688564993 8.4666734578973 10.054102210616058
Li 17.977298955604542 11.249037604585602 8.736661864716332
Li 17.131106388865025 13.797359748959508 10.309665555885966
Li 6.639289547621925 7.65724471976887 10.550892285003217
Li 7.63774210009725 10.54528257646274 9.139922212990006
Li 6.125315518600102 13.471564582181879 10.532281372628846
Li 9.288934257669066 7.692436259303324 8.760370730191967
Li 10.444005520154379 10.432010719985758 7.734844467890762
Li 8.994983305253605 13.240848573350142 8.65950090318801
Li 8.294636957133454 15.663022981288064 10.045035796037334
Li 12.39856547815628 7.979627495225414 7.576253893128314
Li 11.72706286352546 5.753880012671843 9.666502331574366
Li 11.916153741322209 13.299042770188677 8.427095566423516
Li 11.148974185018018 16.426070942679452 9.019366526240848
Li 14.35134955563449 7.794856338130854 9.985683635027197
Li 15.547941189807418 9.489898970494242 7.739465179811403
Li 15.044117754969239 12.581651087888586 8.557571821227716
Li 13.968089762492816 14.973435344574678 10.110429563118933
Li 15.884920839329085 8.211507898046712 12.629156121678019
Li 18.108539852788507 11.094853299549385 11.900754613471063
Li 15.440885014073768 12.869660997581192 12.191659680106232
Li 6.201343976851679 10.584663049160376 11.79918249856
Li 6.512024384517317 12.75333215515629 13.919388374370822
Li 8.24461129325362 14.856397537858891 12.800582823275072
Li 8.755157250956842 9.265967791082176 11.3453269063379
Li 10.536178138228898 11.26874359202831 10.332443790899768
Li 8.425473711022294 12.517118871881209 11.386187941643627
Li 9.582025686243309 17.431660833938604 12.046043429798772
Li 11.464689444374159 8.486419326207418 10.202084784097481
Li 9.524943537970666 6.688746534236626 11.7843096114048
Li 10.854011768944472 14.620413230366676 11.00156593601071
Li 12.623106824662653 17.06284996303306 11.805651991270885
Li 12.559248179089018 7.158851516589326 12.486025855041095
Li 15.899354919941757 10.595616592252915 10.411313612685797
Li 12.989338322390271 12.452631324906285 11.022560141689356
Li 15.600174305459666 15.985798404422415 12.499571884237604
Li 15.899647110026564 10.819436172267014 14.063673178406935
Li 15.282782210025356 13.992618821090614 14.95816931522731
Li 7.147016959364433 8.40457264317934 13.580271234446442
Li 7.71550912323844 10.47778037809833 16.090725538996857
Li 8.22574020480131 16.653404800588273 15.034498830210362
Li 9.983593580008426 8.298475777945187 14.534828840543788
Li 8.692209760698667 10.944666170988816 13.665864172969986
Li 9.067384842567929 13.5151048430239 15.378437801132069
Li 10.752182116457856 15.690981310603343 13.960006553537337
Li 11.222596630876396 9.901473326883858 12.730069061196401
Li 12.222219512200027 14.004498062148519 15.828021871004573
Li 13.564885283340821 16.784278950990267 14.799062855521205
Li 13.29743400865304 9.019586651710025 14.76097165744571
Li 13.80646018611147 9.919855986847356 12.053156731817744
Li 13.279618426331428 11.902196200746912 14.101685424073983
Li 13.22647341029414 14.615350064950867 13.090828564941598
Li 10.866118132815199 11.031175958859519 15.62489022736472
Li 10.835406411632254 12.793000407882777 13.150213209349944
Li 13.125614869967887 10.446511367260468 9.059314019533334
