55
Energy = -86.86546041 eV
Li 12.901681835543444 16.655110742249715 14.564530800109493
Li 9.406632224956953 8.208768364605975 11.652085167834409
Li 13.857881885444185 9.674124586776458 14.17737490574436
Li 7.591789150847919 13.445152719522978 15.581092240043096
Li 13.477648499721656 13.54277605017617 10.703282224063765
Li 14.678936500626843 12.167182378610976 15.401167968120044
Li 14.981412905981662 17.591433634735345 16.74070888238215
Li 13.461820454623837 16.464564849384804 11.360298822085419
Li 17.502977417074415 15.787118383718399 16.613574118698192
Li 12.617940588631454 12.292305343338715 13.356009618618582
Li 13.334634920177026 10.597025598237733 11.326064973024176
Li 12.366052897595884 13.941110890808606 15.569943053884753
Li 9.00550295431521 10.456602211569177 15.692459014175778
Li 16.09371821966118 14.573662311024867 10.965521868919996
Li 10.207121107185806 13.198796825617034 17.37881740736292
Li 11.348381154825134 8.046932242442006 15.010525390212653
Li 15.502169723211182 11.834770572844645 12.566397399866299
Li 16.846924762859675 10.439057138360912 14.864514973466655
Li 10.012648154331814 12.80756199653315 14.500733468116143
Li 8.392356954653096 13.578933652103489 9.651826781875913
Li 15.719804030083397 8.920192355029785 11.996779200517436
Li 9.9828461811694 15.61574762640098 15.31250627584663
Li 8.346518525570774 10.684609521431641 10.170935029538146
Li 14.965458706103508 14.946075249541316 16.12494839329704
Li 10.808558862888955 10.142976469024997 13.229359091297088
Li 11.205196454494692 13.151376686281694 8.965141647042126
Li 17.062059625546876 13.682582862595684 14.324772128831896
Li 14.398901420961423 14.392531532592555 13.375844373500607
Li 15.980338963471961 11.25917617390825 9.766299524475476
Li 9.665321636939252 11.539824602172175 7.513244718601479
Li 16.00429696629363 16.617810224107306 13.807128199463152
Li 12.888729525766424 15.353155485130202 8.402463541771786
Li 9.954690707269883 14.719750737868262 7.109707426144365
Li 14.165485795755403 8.783841746278616 9.209878213593273
Li 10.529650100366025 15.652461355666409 10.230227995788004
Li 9.069610395778199 8.502805265846149 8.259058532193329
Li 11.476542332392908 14.82856140257263 12.742495467415273
Li 11.022825485269198 9.930035425908278 9.822174344601859
Li 12.476904396089576 12.770736930949434 6.348286529037621
Li 10.480800600511369 17.454586901764443 12.730046518724262
Li 11.484947287666666 7.237073133883797 9.32041097299213
Li 11.96959948149053 9.508328260997134 7.101142565523676
Li 10.459508141243752 12.398195903801977 11.479392071325433
Li 15.119933393982983 13.50141933075556 8.014625965705267
Li 15.011739915887379 10.635470785115755 6.649893792886244
Li 12.539618014852698 8.017925946778355 12.023621396416422
Li 13.330787082273151 11.453308150245354 8.620899832303513
Li 16.610009442288035 12.702647437993287 17.30937111784034
Li 8.006377405775002 11.562024148389812 12.949939390539836
Li 11.938265330593243 10.957637476218117 16.003867182838324
Li 15.37553606457311 15.290722847462865 18.793998233165944
Li 8.632634117821594 14.631832629903442 12.66724193665414
Li 12.418389010350115 15.825849168252725 17.58203916506357
Li 14.65964938747216 10.004123578425249 17.211637462935645
Li 13.47835722093922 12.849736476244944 17.981817005725485
