5
Energy = -5.07239856 eV
Li 7.266742083201383 7.049138934158023 4.248610046390814
Li 6.272571972199043 6.458707768618638 8.698614210393503
Li 5.768234256157267 8.151390970170622 6.436313601101727
Li 8.454942121658707 6.905001509504638 6.868055709637631
Li 6.143709642907448 5.176586553227972 6.1275982951983865
