55
Energy = -84.22114767 eV
Li 15.929833246461127 12.306695895910979 10.788943558503524
Li 12.538880972791352 16.11329782335592 9.08213769264934
Li 15.089070090126922 10.304221211610098 8.823783368210698
Li 9.58834029615874 15.740952365217206 9.657349725586135
Li 8.249515905910522 13.332791257035053 11.298186899605653
Li 12.946236992240184 19.479225174893546 12.937236826998642
Li 11.337121583470152 9.166246791322768 16.107453490131192
Li 13.700924142327995 13.187067861770794 9.035684692458439
Li 17.063029118680173 9.42727336010448 11.06183659386667
Li 12.973366888255635 11.342321292321586 6.80476172544797
Li 9.861746682409697 15.42300266745393 12.729679563660998
Li 7.561593713813819 10.659528889600475 9.723170031281992
Li 14.65124340654532 17.057389324744932 13.332195655383694
Li 8.216924385116457 10.262639889811169 6.861439359904108
Li 10.201708076848996 12.067214389685892 5.5763158179058685
Li 12.6582378716984 15.796157687785152 11.889285451171204
Li 16.151588466416047 7.861319771388024 13.635184279605618
Li 18.950962883720994 8.934829758673441 13.319228788808005
Li 13.571519960027107 13.01262626493682 12.350003825247677
Li 14.274140435492676 8.238697009692316 11.109900937270238
Li 17.670691194188514 11.742199823875985 13.050278490058359
Li 13.139694839887309 14.728349959385717 14.65924134572652
Li 6.8143471292900495 10.933946019215089 12.657059692667492
Li 17.1075317260085 10.078165796515394 15.334005689389866
Li 11.302062398560576 14.01445480393726 7.4635701366974105
Li 9.520777167695185 11.71235383191591 16.5504103931451
Li 8.13509289957388 13.197409586137747 14.281742683020223
Li 11.089076691000962 17.97775081993484 11.207894470888826
Li 12.142431905532037 10.257383954485064 13.509011724808994
Li 9.873430454091952 10.912586695984993 11.379664329772595
Li 14.152474967275163 18.17973992565667 10.560166280423473
Li 9.080433863035113 10.15707731927114 14.214383460254618
Li 6.687786760206321 10.949537895403916 15.773252194390539
Li 8.643021172349476 13.108019569606622 8.28386226985539
Li 10.348553954471077 14.653907000559556 15.786317040756519
Li 15.147555753238224 15.295464796193187 10.572451123598851
Li 12.343638766642947 12.075333035797991 15.877172288380363
Li 9.917406313228838 7.454830955344621 14.11319296750955
Li 13.057934073365203 7.549611838978211 13.865856714844561
Li 9.53281029103094 8.504627082243594 8.937067318656299
Li 10.641211464460483 11.093983544112696 8.384272479215428
Li 10.907869040757863 9.185894879443119 6.101499061597329
Li 11.280115054524202 8.294070163102676 11.433873814756536
Li 11.146121204814932 13.521357587353114 10.449942967451097
Li 16.023780623693575 14.369462897968335 13.17789325007512
Li 6.844375110795272 8.260678184324593 14.287547201745577
Li 15.11036939469202 12.354041541577839 14.963222076971753
Li 8.498599943524745 8.69757101797219 16.71049116205373
Li 12.836223599742834 10.817158468906475 10.549392890010301
Li 8.262740114529551 8.446841292773101 11.705026612516468
Li 14.230104512553543 9.549964173079086 15.69429289194021
Li 12.554624472644239 8.694636372969862 8.580864507328638
Li 15.017413129076042 10.377286059212828 12.90699285470929
Li 10.819368740788674 12.860117475668153 13.507791546691923
Li 11.556933654217538 17.233274443777887 14.299105284394122
