5
Energy = -3.47257897 eV
Li 14.850849855242467 11.175014558673974 13.939925496342774
Li 10.312011675488414 11.68946142948135 10.370930973720633
Li 11.559973764753696 11.270969888442293 7.476171262524841
Li 9.016064148270173 11.992305130234886 12.870665240640383
Li 11.784905040979037 11.690550756301956 13.138345623519788
