54
Energy = -85.41946864 eV
Li 14.19759558425953 11.298528230251804 13.86390361571218
Li 17.07330590393842 12.619720929004286 13.420461604391713
Li 14.091191719255889 9.774119091457298 16.33035734328146
Li 17.52116685229991 12.50765839219854 10.045159671899771
Li 15.144133964402297 12.943441276381012 15.979319223996029
Li 15.755183641121128 10.495849085542826 11.532930037624658
Li 17.40963370096634 15.327482531570073 11.590481806155266
Li 15.58775122660596 15.340146776948817 14.119072167379787
Li 11.480627158459434 9.663346121906255 14.874881385143405
Li 15.358084246155647 7.472744722145897 10.642133020008965
Li 13.594731749838624 8.59558714118203 12.991828290132373
Li 16.298958104589776 9.715923000367845 8.59098594115965
Li 12.357251889740747 12.251728350638057 16.098104139380105
Li 14.84104529001387 12.143869068905424 9.12672941638276
Li 12.919181036010434 15.256595763413582 16.277733475477184
Li 11.066932349284198 10.335985124269039 17.754643905778682
Li 15.716637149355282 14.85994821152284 8.94715614100196
Li 13.039556256352373 11.91856788620787 11.39562532791201
Li 11.9086506728573 16.597253439096896 13.56445041666285
Li 11.155539281290277 11.999516790457148 13.41685651181274
Li 16.378269568341434 12.497120433123547 6.874013802473892
Li 14.22547752327693 16.258955438612773 11.500873090109858
Li 13.209538266256956 13.979149120847143 13.634884687930333
Li 15.305949504813052 13.598307935729933 11.649758995638487
Li 13.660050083979025 9.4702712117497 9.874606467967409
Li 12.12911942700786 7.0986635992700915 10.586060715364315
Li 13.88429399790302 7.579785414005292 7.925837192110332
Li 11.13581324113692 9.152118746648586 8.335512911108957
Li 13.779718962001494 10.552110883031798 6.97466692593108
Li 10.453334529515756 13.824477804193098 17.7306389954354
Li 10.076053088292472 7.5396688910303284 13.18687164011383
Li 10.509811932002698 14.382106396212652 14.9207113680143
Li 11.37929499646954 9.68572184549855 11.664441843128246
Li 10.852426618960328 14.381313587701847 11.844822157071262
Li 10.057649938177537 16.694495192856245 16.21499949450945
Li 8.902081090448007 10.194208658719532 13.28571304571327
Li 8.633236649674144 8.886972522428916 15.752053156833624
Li 13.385730032975829 13.604634993551297 7.1285017607064765
Li 11.84766018760644 11.710726325401469 8.935305457515314
Li 9.793880444171403 11.910544825199992 10.890540078649009
Li 10.772249877877638 16.697030575442803 10.422832767611544
Li 9.355492558133564 11.777538846076826 15.804758278689858
Li 12.878314096342095 14.336630179714101 9.995705236918605
Li 6.892424128875307 8.388770633466129 13.125325656755578
Li 8.900674718170452 8.895531286971302 10.62245363486843
Li 7.832625713621874 14.446771337136193 15.828513325715328
Li 10.973850320138578 11.696245710602138 6.321104237947672
Li 8.892977725709672 16.137280924705397 13.235905384958038
Li 8.411009836601595 13.134648267262648 13.264601833797165
Li 8.166764908665593 14.35962335347157 10.563161032184505
Li 6.6019659955065455 11.187049163992045 14.621465293830942
Li 10.371256684301839 14.0355595000931 8.563704873873894
Li 8.674192946180515 11.390486170243438 8.50001270308205
Li 6.992501326004488 11.235951968720391 11.401137572220023
