53
Energy = -82.99316659 eV
Li 17.414886369183275 12.256540226627717 9.856551698517372
Li 18.716551783035495 15.005270092213769 10.864175669258104
Li 18.87746599874651 12.525518161451158 12.68387897059332
Li 16.143148634369354 9.178707126563758 10.434669169108325
Li 16.644774053898153 13.16493826400536 14.907467536838624
Li 18.197448497561876 15.482562214058202 13.78586469541452
Li 16.059131311716243 15.088074370311034 9.473383257760966
Li 16.179474365713098 10.944682664464475 12.843320670757786
Li 16.501320963217264 13.911662233533464 12.162571790888851
Li 14.791986906828706 12.026317921574973 10.55556094267587
Li 16.02310989779115 16.75823389628629 12.119539057533165
Li 14.477346974744536 7.937910894031831 13.45029654155135
Li 13.090364983803198 7.411371225795978 10.22533267030187
Li 14.816474835758504 10.492028167163857 15.483773222132877
Li 13.73544659189075 9.809804622763004 11.693702985825304
Li 13.894553610059942 12.68119219437027 13.679932806022768
Li 16.054210204637627 16.127760767083892 15.896668009156574
Li 14.282308163882503 13.567072772761268 16.61989032805974
Li 13.797686743416698 10.139548568214868 8.617813906273813
Li 11.245268455390267 7.901122940062336 12.885580795762856
Li 14.184287351561128 15.497042837658835 14.017679724376245
Li 13.939582283764688 14.554152103161233 11.143382443708509
Li 12.496083311698763 8.278879074650916 15.961121126014104
Li 13.937322826303513 13.300960461482347 8.26643509626083
Li 12.461085061835337 10.15029439245285 13.95465852090595
Li 12.077111890621289 12.18138461056727 11.375651480292834
Li 13.111844389067645 16.52395821489661 16.798184282283362
Li 12.10530958699713 11.446801476351995 16.56796693767312
Li 9.492815655196422 7.737009510594818 10.316428624073046
Li 11.111504706701437 8.809997380966383 7.6988024392536625
Li 11.773964673498073 14.33269345743567 15.653803339152285
Li 11.466175713473161 9.627841458934254 10.263549100721045
Li 14.347098359376544 18.2563321347633 14.378750913375749
Li 11.78819926812046 14.089140018121288 18.450258911736555
Li 10.737412599149375 12.327673771873034 14.016232591007805
Li 9.757682772483005 10.363620628178671 12.208918841254125
Li 11.496181133636492 14.77108467255755 9.684903613464575
Li 11.610294376711726 14.731969802296556 12.720414311950925
Li 12.895378843649054 17.16651512896798 11.589911509076915
Li 9.774451459951324 9.80684355180604 15.193119816751794
Li 11.268270715709166 11.999006725994226 8.644017423108377
Li 7.818581947267452 8.73124463331038 12.889331193359926
Li 8.941727044185932 10.540267071969001 9.303946288116768
Li 9.418971237639594 12.927400876936565 16.657185976263374
Li 9.414283053110129 13.115422407112575 11.39891636064687
Li 9.935894064575725 15.985162244746276 16.904737152142086
Li 9.062150482232473 14.791413653391118 14.165929591051125
Li 11.418165829774024 17.054693010956832 14.28079951940237
Li 7.8775046079619395 11.952649568287887 13.966280367440483
Li 9.539247231829542 16.16596347707779 11.444697325423649
Li 8.390702427732156 13.762295404007201 9.042311282603947
Li 7.01299570256078 11.396346390768048 11.218058713753871
Li 6.977308457459046 14.352642551001908 11.886374462116438
