50
Energy = -78.09805977 eV
Li 17.924986450868136 12.632808999017188 13.844722301717264
Li 16.300286882990644 12.658874798068139 11.183470736540976
Li 16.97583639106877 15.368815796772802 12.346570220382196
Li 15.388100189801193 7.85749642963428 12.235953427627697
Li 16.433439982531528 14.97949663240267 15.716627861193967
Li 15.590468441207 10.674448559896087 13.002523516991563
Li 15.926393679656211 11.85298234627948 15.852071204160676
Li 15.801518301339094 9.969091247044462 9.775989995332745
Li 16.204178573023448 8.969417104689127 15.218967259156985
Li 14.221632162453167 16.9037549754211 16.98394008772089
Li 15.180653781061329 13.565448768772999 13.68313558414363
Li 15.977259802585289 14.839151687182124 9.18758938428998
Li 14.625516484278588 13.503402488056631 17.879135817678627
Li 12.962439746488029 12.11021368768986 12.277189495077302
Li 13.851094185664364 12.484087171069339 9.560222549760665
Li 14.21937908211887 14.863318135481814 11.322727002336599
Li 13.954225833768726 7.360898279580837 9.44566479598409
Li 13.836311285640438 10.24949721989703 17.220938414953885
Li 12.301691720270203 7.319402216544167 12.224325927197263
Li 13.21233449479373 11.912225600391697 15.15357017075517
Li 13.333681090210545 14.679507916760018 15.766317424997576
Li 13.395375320415926 9.58404543641575 11.001003631812063
Li 13.473495762290023 9.29447546582099 14.217541515287678
Li 12.96174909541371 9.996435605458126 8.006320983159776
Li 11.694181997631352 12.569538816241202 17.37621411607472
Li 9.80371210819482 10.140298839767109 7.553268182670465
Li 11.06419882267044 8.292472646882894 9.642148822866822
Li 14.579612712939849 16.589018941903827 13.80016862261823
Li 10.887808662078648 9.999498767982974 15.741782908104717
Li 10.966520661373293 10.072664241956494 12.61674041793201
Li 10.470859713068256 12.482316167798473 14.424500320126366
Li 11.37782883620875 12.99402330029261 7.703057060534737
Li 11.095845048876935 11.134825568971198 9.83981431849501
Li 15.025919557286088 17.38282532265936 10.66995560184794
Li 12.176889649180463 14.564957095132465 13.337590092630407
Li 12.992299349443458 15.523490769545491 8.79563932410905
Li 8.730154436734088 12.099244702179293 16.553324533619037
Li 10.241157487124887 14.840944304074783 15.836275232097986
Li 8.619817623170173 12.624090674173358 9.047150634523462
Li 11.866992457434476 17.134775395516012 14.64217295429236
Li 8.605300926644174 9.881591053782193 10.571909788530682
Li 8.228378684012597 10.5427820929308 13.83414712167116
Li 11.344256045498634 13.924638749868805 10.572719154649725
Li 12.049891131294789 16.80556349347111 11.416703741743651
Li 9.20015834094537 12.555090750915621 11.866320829944287
Li 7.6174223689613445 13.559447422252843 14.02054115244284
Li 9.66268293272087 15.462374734105314 12.732015006567876
Li 6.488362985975749 11.892121657794272 11.524716931630856
Li 9.816302868646622 15.572109070265089 9.163332910087377
Li 7.450716222762372 14.640895895763643 10.963267242888595
