51
Energy = -79.8633317 eV
Li 9.559719999036814 12.284135283401817 8.446153785040394
Li 11.159480201751338 14.07327080524828 6.26761494586773
Li 12.179469414242863 11.109138737082903 7.130606519147438
Li 9.380533200313973 15.41836884110843 8.570697862149578
Li 9.767970291941664 11.65786012560264 11.408803316860531
Li 10.17402557333473 9.39096033992334 9.362917359997278
Li 12.457448250629989 16.258708375713013 8.235886302976715
Li 11.84234427513833 13.725015207250742 8.906170093577796
Li 7.6447271182013345 13.560932907724588 10.494410885915535
Li 14.098396211894233 13.69420104798514 7.337359158839176
Li 10.255275553237622 14.497671663386484 11.055537173851356
Li 13.226135083991414 8.560968180684956 9.442752506848121
Li 11.929439168451673 9.426764589146039 12.157317262273812
Li 14.564619005382417 7.822081453230287 12.435144605312034
Li 12.353667915299907 12.838251296132169 11.947085550665872
Li 15.05762446918515 11.035230739698225 8.659000788544839
Li 8.330269001225435 15.780808332992299 12.546475554531527
Li 9.845231067087658 10.510863078847082 14.220100064132808
Li 13.02242142655253 15.624712592139112 11.088552056893402
Li 10.614510804443915 17.36178590455946 10.645410639007242
Li 12.229134601012962 11.161047272325089 9.811361201303617
Li 15.508221989821976 15.704571617655656 9.385673399165894
Li 7.780778349343744 12.989556642246768 13.696227795925575
Li 14.401189747906383 13.327163421116524 10.245615850225045
Li 10.382648546680239 13.475843121424369 13.878218238577267
Li 14.497685622437926 10.506154976310146 11.447151643178259
Li 11.158803121096618 16.225653667679843 13.353186000523603
Li 15.138280260754193 12.49721115660903 13.124351519207304
Li 9.403225231606719 15.324033515348983 15.732051674351132
Li 13.998902850263345 17.35490802533181 13.293709203935254
Li 15.846150120447946 15.094120071622571 12.347809653896572
Li 9.389205493327722 12.493350309351646 16.559224801325275
Li 14.782941833125296 9.89698950225803 14.422650765879702
Li 12.507812368884041 11.419280478464044 14.203874289813275
Li 12.03161393474169 13.58385701990287 16.279554380642026
Li 17.039443702507317 12.633205268717859 10.943931655771216
Li 12.680916830399527 8.296934135062823 15.014185501291859
Li 12.452677696418828 16.379821268195563 16.076865435575883
Li 17.084203231991072 10.023564301965305 12.867177469844654
Li 13.34296370912512 14.568688583905619 13.932543993435116
Li 15.582123390122817 15.181571386729892 15.458537108329706
Li 10.99035076835353 14.553712447491776 18.551264634345184
Li 11.785918890472958 10.631714564998894 16.731266029632895
Li 14.679415572314257 12.429175181141364 16.00438765090745
Li 15.98244284602075 7.627068523280839 15.274811731024291
Li 14.118818881153953 14.858239246773113 18.00967024137316
Li 14.64170138739811 9.711770528708387 17.28932203718957
Li 17.445019744835705 12.968442332402512 14.431267579234273
Li 16.590008426376233 12.856183290762717 17.810106399437714
Li 13.297299917501197 12.22890530300874 18.668692818203713
Li 17.165640421339084 10.415495868409337 15.941142874959652
