53
Energy = -83.35328611 eV
Li 12.423550835270339 16.910440484274115 10.450245937739586
Li 11.238609572303158 12.792428558059875 7.279485376013302
Li 12.243356402588946 10.907240434322643 14.549198422854769
Li 9.004090017622131 7.338390570242189 8.780382501913804
Li 7.851131054956717 14.59693478367015 14.258756712242322
Li 13.198103319125337 8.714496600556826 15.688739927970902
Li 11.388806765327779 11.319986352552673 17.22382668313482
Li 11.73265741962628 6.3734365868994995 10.77996800127444
Li 9.293361181206825 13.548630050245869 17.0996174997424
Li 10.225153896992762 16.10262718270263 15.960608308644243
Li 12.048837241307996 13.767384079032597 15.563247861384427
Li 15.33088660216597 15.524676997208417 10.802415129748484
Li 9.706952929260108 12.331189274961906 14.658756825833333
Li 7.9025015534038925 10.243619126828586 10.53718275727624
Li 16.062565684658217 12.748748179921606 8.864405435776815
Li 15.003290226619539 6.764440849017031 9.425982147244012
Li 9.281571140179892 16.009855972186664 11.085259939414314
Li 13.236808445119705 8.671780988259927 9.694968149563687
Li 14.358357710246981 17.957507275753766 12.743598325239587
Li 13.487875736698337 14.55051231932567 8.48794369482343
Li 9.047025131440213 10.445393958652431 7.880942101318362
Li 11.644217078875549 8.257830608936203 13.092783533764035
Li 8.782811312999529 7.774223817791418 12.19128105490584
Li 12.216516583262873 6.859104089604323 7.864885545063522
Li 14.367348086870576 7.780746625593675 12.28820953825798
Li 14.054995110998346 13.016937789438007 10.977403335103636
Li 9.837936042508671 9.375324429508861 15.270108983248198
Li 9.9536577269141 10.414675550406077 12.547249730776201
Li 10.875148343577395 11.54386078673607 9.892548218319327
Li 15.947772816965744 15.438612923109407 13.82294566093705
Li 16.9307673917409 12.65074978612094 15.145319140703254
Li 11.792878961525656 12.76921068912951 12.576941230729265
Li 16.585520317328438 12.784917144464838 12.059426289708616
Li 15.669009203186297 10.06272635675158 10.473917915441543
Li 12.959399921618797 10.40522123114789 11.76514472010657
Li 14.366937966554953 13.115273672417588 13.997841026013184
Li 11.703489098383328 9.666284756589667 7.371825619078413
Li 11.368453520040221 14.2797780254983 10.281615877944992
Li 14.261315492520728 11.63323050554724 16.550505459121858
Li 11.179413980281941 17.673210735747684 13.206715728813778
Li 13.441389142156533 11.47102595558925 8.768700953549551
Li 12.138405244911807 14.462844812801107 18.138930991241157
Li 13.170225473585301 15.418479771735093 12.708907402118493
Li 15.118241635070458 10.395454913483167 13.719445699696127
Li 8.87984808830356 12.95401622280668 11.864860404290942
Li 10.565599208655062 8.861452704867892 10.158831613556579
Li 10.585495742382655 15.840805834440344 8.115170946686487
Li 7.366085568329985 10.915095109216125 13.699953395957987
Li 13.151330778685617 16.502125999915915 15.286832359099437
Li 10.481510948155448 14.977666746867316 13.40687154114603
Li 8.796606860745399 13.387760063902595 8.959069428611803
Li 14.876452445680647 14.51380617965661 16.545551456170717
Li 14.824297280694994 9.24697457935918 7.440958052751409
