5
Energy = -4.87221733 eV
Li 7.076067270785379 7.340146412977402 8.042195676927259
Li 10.040531656011884 10.799789894608475 11.490671376894317
Li 9.44108107115371 8.12681558352536 6.497247275749246
Li 8.079406395852272 9.008847700042562 10.2033581725473
Li 10.358815488394889 9.72030229104408 8.762429380079631
