54
Energy = -84.94377252 eV
Li 13.229667712763625 8.37492915649226 13.508039511808848
Li 15.784814743182844 9.73203134729378 14.78515420208521
Li 12.636719705446668 10.579533033035084 16.91098244938273
Li 15.884409505253638 7.281580421952693 12.679922180590282
Li 11.014988002342344 8.38554265820167 15.433993225859735
Li 13.381427020561667 11.226032811107824 14.189683486671086
Li 10.49746689532136 7.321401348478684 12.46503920727679
Li 9.215369988333189 9.56066015970964 17.56564249488088
Li 10.844631769237447 10.104094197678348 13.050051866213742
Li 13.355540287471573 6.665640800271159 10.833054979515024
Li 17.85628291859534 9.485117192226863 12.198167289326792
Li 11.078432106312231 12.989821074262077 13.571467434024544
Li 15.053840296296123 9.929076064977298 11.913071243706923
Li 10.090017420891561 12.450274579649546 18.00620477311923
Li 16.58102368570641 12.166493612015557 13.003173233610646
Li 15.260098462242114 12.924855632969033 15.727529563247714
Li 10.193510709305487 11.194565771078262 15.598471190140085
Li 8.373398379743197 9.133994886680258 14.34381457041041
Li 12.260835319956604 13.510754327221779 16.08405375092813
Li 8.98388901763348 9.773224699679805 10.96659344009536
Li 15.856966816542204 8.289155845509521 9.823452633281425
Li 10.630197261007813 7.479989536687698 9.355001312073822
Li 12.735781689860493 11.79508696865056 11.517328628688414
Li 12.330241256119482 9.1275406992166 10.791628238888569
Li 7.431333471491209 11.693216163358397 16.081057410006988
Li 13.225015618073458 8.429166861329294 8.067152870489169
Li 9.145194955110252 14.053904672290425 15.485551650839405
Li 13.848857018101546 14.01378894082677 13.489401879065793
Li 11.379898895518865 15.807286114558883 14.284449051867059
Li 8.394244296632689 11.888141117134575 13.194547665119904
Li 11.186420769877163 10.629218107704862 8.714710153437823
Li 10.149204331354554 12.462910688609622 10.703849244268829
Li 16.9852013560568 11.166436881704055 9.849100922147896
Li 14.18302483680604 10.83402084803032 9.157416927097524
Li 14.30160157880966 15.938514626527132 15.41565625088508
Li 16.228439949647232 15.246827485137416 12.990759489548296
Li 17.58148898027208 14.013867545098059 10.397223239621587
Li 12.685993400460495 13.357958871454176 8.951891470707736
Li 15.030558279104497 13.085530604717466 10.950368425870932
Li 8.366970354848949 16.78792356085739 14.236703087482558
Li 9.07685976057951 14.72957738244125 12.517266792950286
Li 6.583053932727227 14.157480627539972 13.735946452418396
Li 12.007723540567435 14.705448620893074 11.394368219611016
Li 15.534785013501459 13.232174772508444 7.984722372266038
Li 7.328658288297999 13.118091745895027 10.666682369764118
Li 13.053574652118735 11.667155361320141 6.5718249199889485
Li 10.385246876808438 13.301073840461571 7.442951249086988
Li 10.30791623278044 17.192682631850634 11.769333728005059
Li 13.556760155770615 16.822190177938417 12.406012163231917
Li 14.770509978392557 15.502387175892506 9.80624814141769
Li 7.197479621922316 16.306550970274557 11.368233484350418
Li 9.436081400902651 15.078226857592659 9.688574682948095
Li 13.19604865326646 14.807207857142329 6.7068118177164795
Li 12.021675988732659 16.375722449379232 9.126226348962323
