51
Energy = -80.01172017 eV
Li 17.575072870893685 8.928271727949037 9.478181139151209
Li 18.339967554369927 12.265785166702491 9.747244994460287
Li 17.413136754275513 10.743089337353846 12.20688935174861
Li 17.790382452447723 15.446538849016306 10.253659051789514
Li 18.705538260050158 13.611842504517513 12.67228966911425
Li 16.394473139403985 15.79074875364888 13.086097620110797
Li 15.666576737799435 10.079981963339218 14.733790883714617
Li 15.295765324487224 8.635511911246022 11.586381569007777
Li 16.16232787579331 12.99312535744841 14.444903458605605
Li 14.535408949491092 12.414134960523945 17.382420133261146
Li 15.703668789746757 10.941232674073083 9.806382415005254
Li 13.623852885113026 11.43246595536498 7.703815709191254
Li 16.311189913130097 13.426049526973657 11.394341950130123
Li 14.692152965631633 15.775522560469541 10.531018184015911
Li 14.526695782023198 11.422969834965647 12.541887235609796
Li 13.92093964079945 14.169855329031918 12.894042761342089
Li 13.284482289248356 17.047377224441465 12.99973387398632
Li 13.39010174243992 9.522087490082 16.514899367649306
Li 13.097584058294748 9.219797768350618 13.442516041687687
Li 13.11793719435654 12.18557560935314 15.139174788173866
Li 15.779516117684421 13.73846161282294 8.526264249459762
Li 14.25966332981301 15.220998103972738 15.495699668804308
Li 11.780556191489495 14.475325959780514 16.85874971268072
Li 11.402404173943495 11.531994529331634 17.449248494303323
Li 14.297849877889906 8.477396378123043 8.718413380503042
Li 11.551444405060044 17.412490191926366 15.554766623845772
Li 10.849132710646911 10.0957557785322 14.870045132297543
Li 12.853142978454436 10.277290854680315 10.467940479195933
Li 11.662677501471723 14.894384468865782 11.02907854133436
Li 11.578388720445778 15.045919984258456 14.10493982133667
Li 13.578226272787106 12.98023014915344 10.16699943047641
Li 10.025681443602583 12.819360560409232 15.106629488402858
Li 11.178321432844642 12.661448351489469 8.683205368747695
Li 10.068007371075687 16.99043378363503 12.612312190293435
Li 12.342852688856084 7.386371385359413 10.91252162325303
Li 11.66030702935148 12.23181721840725 12.666940556219043
Li 8.115202970752255 10.643851080946314 15.975112896449229
Li 9.241601933930292 14.057189574409486 12.620209244120185
Li 12.897250486636146 14.967334939746552 8.156311963762393
Li 10.87360525697772 9.467868994459456 8.82063428987374
Li 8.973315486671074 15.715247134188012 15.158623003345538
Li 9.731785661680668 11.894309044006963 10.716081533808763
Li 8.58152316359635 8.316722729690477 13.792299340210507
Li 7.057357800611569 13.242890138110596 14.39049952739084
Li 8.963587491976647 14.80285504969115 9.909885833978787
Li 8.653597730398955 11.12148982115354 13.235513973923773
Li 10.608695506730056 9.45643843766963 11.936509213807213
Li 7.121332444096969 15.742708154770025 12.422374237352692
Li 6.955869487092219 12.690530253064987 11.382465708716762
Li 6.14396470995363 10.305317821143285 13.428532192585886
Li 7.870932704929765 9.593579670719008 10.882483890322195
