55
Energy = -86.44181229 eV
Li 12.308102009628119 17.826905575158307 16.76591389608776
Li 13.370212406871225 18.013552406174558 13.499059807196295
Li 14.950474303621327 16.20573639686207 16.501567662882746
Li 15.373316569278607 13.738188299258713 18.390524107020575
Li 12.476250676775052 14.750237214266798 17.71032040948442
Li 15.542943056916835 15.777141698959696 13.619652223283387
Li 17.11648639521313 13.909068491034837 15.673595359119087
Li 9.91156398008153 15.826481450751446 16.039370360262165
Li 10.552952735024009 18.14179477566334 14.297188911833514
Li 11.308478721551303 16.181605288420993 12.310122665331651
Li 12.47988000435975 15.747135090832964 14.975123296113471
Li 13.897143179928378 16.005511111726424 11.12205638970504
Li 13.140354490941196 11.610310447498204 17.605233821076627
Li 18.584805847112815 14.4262429351931 12.985916670444828
Li 14.36652146880631 13.436657433404397 15.784519652445397
Li 8.529437776168557 16.173504056049 13.155386683827299
Li 7.7832373195077365 13.817253470292506 15.082787827084658
Li 16.16887762160914 11.258320679719182 16.70324351865374
Li 10.439098994517517 12.806554626006012 16.50757294637227
Li 16.690740689105656 15.318466801809137 10.643628692396144
Li 16.20435607415954 13.187117567773136 12.928957135258228
Li 10.557566842856684 18.502748077142314 11.231167078772437
Li 18.019531912919856 11.345053271074358 13.920531464236259
Li 13.332598470748044 13.911623037060235 13.075582024785273
Li 10.31165098997164 13.875482066370713 13.73324961685879
Li 11.773370283195554 13.785792739372887 10.619242139861877
Li 11.774437659437622 16.432462205821857 9.192438733587514
Li 9.266917084112391 15.326731160684115 10.302366296873165
Li 11.047116044918736 9.492414734969419 15.918281260624083
Li 8.969491866600082 11.076507917601392 14.33227231774806
Li 8.053781521150572 13.162426107684444 12.189460285794596
Li 12.241521242580554 11.688159664623893 14.709483393851698
Li 13.39491668603419 11.402744207153793 11.85934290630439
Li 10.649611357965346 11.202751746246683 12.200218315515398
Li 17.845474382187668 12.571215693696471 10.572650870855465
Li 14.906543170951968 13.158318059604996 10.538914105807407
Li 16.17689257594986 10.425296126383353 11.54176034299826
Li 10.038695269653088 8.295643229878008 13.190049362876252
Li 15.017785094478564 10.956926130440918 14.105617550003036
Li 14.006578584156804 9.124188991792334 15.988859774909375
Li 9.46045497653694 12.14367158706258 9.811221336480594
Li 13.888633940489624 14.2037849001369 8.292406188176253
Li 10.90587962477846 13.697318424671082 7.789516888701433
Li 12.421070691511076 11.408318588958325 9.113229701558929
Li 8.111402442167334 10.058248312142592 11.4472461024408
Li 12.628169535427833 9.079953217611859 13.295321416167168
Li 15.278308792254084 11.164058451124767 8.614264272624029
Li 15.173061521219998 8.003834693743373 13.329896035546453
Li 12.48034373452664 6.768063993138284 14.748048432001164
Li 13.884789061417441 8.997713140455412 10.575809766501784
Li 12.969415751969303 11.721937065475256 6.4748774003368075
Li 10.298913367412487 10.470525762098728 7.5289821033423445
Li 10.908204987738241 9.124141514621044 10.300906890258577
Li 12.902441349370294 8.87529500988528 7.806916371988646
Li 12.44329298755682 6.722962479840214 11.682225341156096
