55
Energy = -86.85313141 eV
Li 9.900741157058354 16.446116915079227 15.452883294526288
Li 14.69474060191625 13.01973702787099 17.079602707242007
Li 12.894854449195648 15.652607659609632 17.11630541611734
Li 10.953909161231948 17.69565348664689 12.342405574988003
Li 11.74061140903654 12.933990753920874 18.207594290262687
Li 13.045716555583912 16.844390297024457 14.322075571729728
Li 12.162879037062462 12.628538663041141 12.753266469243535
Li 15.496640700426575 10.171021803194408 16.046774944552215
Li 11.847675015083471 9.684405416857501 13.138742219928009
Li 9.7264066090326 8.342779474449493 11.219994127375887
Li 13.988525827966027 14.164786057638318 14.590973348164475
Li 16.773436611696503 10.784646744516335 12.316311050865247
Li 13.435776603210481 17.383385262020322 10.398958898874367
Li 12.827217186914726 13.203440108789328 9.847108142076738
Li 6.971053189416902 13.081322072562031 11.178333345893734
Li 10.11144060318983 11.684280752364876 14.478428090012459
Li 7.447598099984401 11.062561613199351 15.12428172080878
Li 10.976972817386441 15.621473525132073 10.159885734685052
Li 9.759946522648116 13.228876265115312 11.16060632859751
Li 12.37719361050245 15.260922648054136 7.7574263306486
Li 11.867626666201986 6.8898437091432285 13.228820943999839
Li 14.37009735519036 11.325229338048244 13.924907553852398
Li 13.13264832367597 15.223646223626346 11.923843984674914
Li 13.983236591878686 10.73491671691346 11.220311504117737
Li 15.962392632875476 11.929274635171211 9.428965825033272
Li 10.217062426158588 10.443067431637948 17.067032359718617
Li 11.10408537066687 10.777043822385195 10.533131893055627
Li 10.70231600326077 15.093738364879629 13.151569311359411
Li 13.327865684605122 10.417827170341912 8.514415549633531
Li 12.649880675921326 8.67231846787148 15.696392776116985
Li 8.391890421295201 15.882609892897458 11.6063120344469
Li 15.752012413984149 15.82986583520604 15.918242096909452
Li 14.077012722996503 12.838071197856584 7.179739965271786
Li 17.719674910586175 13.83539032497983 11.297511402247615
Li 15.560464008828427 8.862885399932651 9.833985287229474
Li 16.69240537825494 13.165340792411275 14.42813563372829
Li 14.606376399831873 8.52179159373422 13.127063766530657
Li 15.472682747123523 10.065429322178783 6.851510150129462
Li 8.29206614387375 13.78451381959393 13.872624514958169
Li 12.495809247613192 10.402167417101266 5.896440809575412
Li 10.720392079008551 9.126208149837492 8.214219420968154
Li 12.616576424457028 11.459811706878808 15.949639051480386
Li 15.805369471609726 15.927002041956657 12.71101635136202
Li 15.166341810931579 14.955017292045527 9.561821562385846
Li 9.590822506362594 8.738601472186822 14.480677130079147
Li 8.58768432342102 10.800176706778348 12.34465042611756
Li 8.74890907671639 14.25107893668139 8.76186956630561
Li 8.516175426805484 11.03912148923284 9.300100770172415
Li 15.17139661218359 13.25774762379027 11.92641904175434
Li 9.005377452136363 13.378807607935233 16.75776547531507
Li 13.467855211176845 7.874941555724432 7.517576062690707
Li 10.982672774452688 12.358274651626726 7.88661526944183
Li 12.679938324178098 8.180490877583273 10.553655975057382
Li 13.246700902959843 10.276373133662636 18.340797368172545
Li 11.400505710233507 14.00409873108212 15.517921559514274
