52
Energy = -81.16585885 eV
Li 16.7039687747317 7.928950022028153 13.316292456057647
Li 14.84760458110846 8.380699189784467 10.762252516612344
Li 17.821662517470582 9.94832870136836 11.134798542100144
Li 15.348061837096283 11.127847855861466 10.20097434795722
Li 18.230993629910287 10.365601637086876 14.34226360191139
Li 13.731654721231992 8.169832619873903 13.729309242909212
Li 13.054837574320121 10.234424335649495 11.97617322927178
Li 12.966948737539846 8.391553219537993 16.595605502437277
Li 15.60470064769021 9.479786821878061 15.75666997805326
Li 15.627016048567144 10.412753389940397 13.013336250675152
Li 10.913519465171397 10.239882176986578 17.42081443800668
Li 17.562827048079637 12.736881064227983 9.208064110272476
Li 17.26695796997802 12.6424491832435 12.337226102327918
Li 12.643070976248183 10.070147837074847 8.837761536449364
Li 10.841752349413051 9.094465126501618 14.320034910263917
Li 12.774772416829801 12.338487106023312 10.260426285424572
Li 14.602828571533319 12.666592959132213 7.845562781594122
Li 8.348918598357363 11.892251702426492 17.909761242692102
Li 15.908665720665661 12.355615441570597 15.132692410153942
Li 12.887668233504618 11.062974774692146 15.075051097325595
Li 10.908703023130542 11.748178129289744 12.770663706319832
Li 13.948783683319773 11.383708081168699 17.599516631226116
Li 10.361740935773623 9.677379043838501 10.91562578531509
Li 8.23833542871585 9.230299728015476 16.169508501468542
Li 13.896017926210153 13.055422107062642 12.979512364877364
Li 15.345317311371897 13.886294267382837 10.682301692953544
Li 9.534490521715936 11.55087366174529 15.40055348091412
Li 13.759963842651933 14.216269917216914 15.888612772644525
Li 15.72706829665613 15.584511163899336 8.346875645844463
Li 10.039068462901895 12.501065425444983 10.02368118670378
Li 15.766952820655312 15.17566795160628 13.502248123413134
Li 11.472627015825733 12.705980132170575 7.5616546146510535
Li 11.284433978524234 13.84076309075233 14.56605028588929
Li 11.253077203480114 13.121160474591582 17.319571558313935
Li 9.343045934581234 10.462163063834693 8.213034206587658
Li 6.778537956184576 11.851826307775903 15.202551181038631
Li 8.28662924064615 10.191406753118981 13.11419077697479
Li 13.109521060957233 14.83537131426333 9.100866388710216
Li 11.545409051283858 14.512298742591092 11.597306836868173
Li 14.25071412726277 16.519322669715272 11.057442160403504
Li 13.116648672161666 15.099775895606463 6.359806148201219
Li 8.747210887484057 14.246586493090579 15.917776155579704
Li 7.52648882446473 11.679507171582152 10.541703070677002
Li 12.84410962793606 16.158791436098223 13.642049851819074
Li 11.295327322178348 16.121902507961913 16.300420411181022
Li 8.59405124424719 13.221118031216612 12.98264055599802
Li 8.291144752233897 13.372594850152057 8.00278457906895
Li 8.73776280325347 14.998581144142266 10.6335009697941
Li 13.151379670373734 17.470094340159104 8.329666928313529
Li 9.802966670177312 16.062703521575315 13.458104197471382
Li 11.262867385467441 17.18175541455841 10.901022287742839
Li 10.591975341849325 15.437359234097178 8.364418687449492
