51
Energy = -79.57435555 eV
Li 14.374368365166825 10.771231760425865 17.409270547779208
Li 12.576464549794634 8.985591691365151 15.506447388540316
Li 15.734982305047984 8.567550955421892 15.833688172033984
Li 11.914002873849416 11.669287703322112 16.041868575707554
Li 17.219863639026833 11.293467560388802 16.056905559566435
Li 9.277722386879415 9.883233730948213 15.754900597775384
Li 10.783161591104845 8.217566081524508 13.313357007239617
Li 14.874116882576953 13.426938536807436 15.99127738241337
Li 14.297405581856651 7.870251179020765 13.203549093013455
Li 8.048359665248459 9.322510116141961 12.702282737531307
Li 14.699451458370131 10.78839888121184 14.564921255958208
Li 17.06025057874118 9.670225879346384 13.239744941703826
Li 12.810374342376313 13.020900987481 13.822843713317335
Li 12.147721645380015 14.771905419103815 16.11165648320753
Li 17.591363987024664 14.516587268825281 15.369094168639718
Li 10.170399164792574 10.023415715381065 10.941507978489804
Li 7.313060881817322 11.757661718774017 13.932278652411984
Li 12.458035093876227 7.961886205372765 10.673236319293911
Li 9.470342832920272 13.321119006986072 15.55235983508592
Li 10.197962040581919 11.268453075091378 13.620407408354298
Li 16.754758954541 12.53930791653326 13.490115525179817
Li 12.78325353954333 10.61091491837695 9.567701364407291
Li 15.29335323426951 9.568994991820679 10.846536767938115
Li 12.747392315345321 10.151433938028102 12.569247802235584
Li 15.222621616449365 16.540641836411677 15.327070157017332
Li 14.623820149019759 12.26592199213057 11.5297071935172
Li 17.497450324731957 12.053761085237324 10.813449905418176
Li 10.40066198171959 14.566422548742292 13.118418275768134
Li 15.028316062159575 14.69029184679468 13.397185898863908
Li 14.804024541244015 17.159924033455184 11.90993860511922
Li 14.022009896421066 8.690140742203495 8.058605625176485
Li 7.41892855792152 10.86408052778649 10.010323597389785
Li 7.415759066814311 14.648151696760092 13.889185367489418
Li 15.328379481449828 11.604196979613185 8.571078938435901
Li 10.117296987561888 12.046151151702814 8.775190798853076
Li 5.8804491311731955 13.223767881719176 11.567771632561236
Li 17.494896328108748 15.235681043667586 12.382301499388094
Li 12.636924560829863 16.374612076687217 13.917295333656526
Li 11.564557772237796 12.552268503005434 11.303154045755344
Li 8.605169525369456 12.851843855002825 11.5547289995637
Li 12.639997243349073 11.167359741382864 6.89000360112074
Li 10.780282302011019 9.02958590245207 8.267850997532147
Li 9.671858170841434 16.67052997008802 14.68738299873119
Li 15.586095818064226 14.58632974795209 10.164922639406566
Li 13.006730844783869 13.478532506091097 8.907651765996745
Li 13.000199868347218 14.99781151051355 11.43437464850583
Li 7.5995174347179715 13.873280734316557 9.109040355482513
Li 11.036238332926356 17.189359812791427 11.644545914987939
Li 8.16712480581577 15.845366866736493 11.450007059962822
Li 10.46779509583313 14.880897322263992 9.851423314173694
Li 13.12929110419762 16.569903112252995 9.230725118213067
