52
Energy = -81.28517397 eV
Li 14.005899797843414 13.875013898715972 17.15728868509049
Li 13.980534870365643 15.73566350318304 19.38430697045318
Li 17.493209968316478 10.331734659342635 15.78791449279905
Li 16.044611692432017 16.14191362509497 17.065930254281962
Li 12.58002578479941 8.33227205557961 15.457272142369597
Li 14.321691736558988 10.851950738192595 15.988552081328367
Li 16.4550543612423 13.261616266173622 15.648190203522347
Li 11.819657511049787 11.824507492393744 17.670068382780613
Li 11.15854878273579 14.766929114796266 18.178936633275605
Li 11.223418939081848 11.028898013816114 14.977820654590692
Li 15.482644304239363 8.396709635906337 14.217632642902796
Li 14.701355821031152 15.533534696360473 14.579743338666704
Li 12.940794629589075 7.539590410291527 12.19570738296544
Li 13.039113815559778 16.50342017506165 16.65988051671903
Li 10.205155387671665 8.557029298602739 13.315772023159216
Li 17.73296547648809 15.600316204593426 14.320246470795002
Li 16.03303839549416 11.090110673049836 13.5381217468554
Li 13.113999438896238 9.995449938541034 13.247784916398327
Li 9.154971683899024 13.164463332768912 16.235728703233008
Li 8.816275748769772 11.44110327060063 13.470155650640725
Li 18.521816611352573 12.536298109774995 13.580592413825231
Li 18.1551893786865 9.489491388274157 12.88823990601782
Li 13.816729838589518 12.901693577475037 14.152868019570343
Li 11.622540152082875 13.864101003992069 15.548707974550148
Li 8.1358758897517 9.636685431305162 11.000797942362839
Li 15.502972253148126 9.248947574052037 11.26708469333417
Li 10.803594721547592 10.376108935801469 11.382891524439763
Li 16.99253554925001 11.937595175887004 10.795380452543952
Li 8.876856521941047 12.62717327616186 10.725056947245557
Li 13.0472270985552 18.12898751892113 13.966830326224452
Li 10.47594209980704 7.909669273690626 10.148423992288969
Li 11.380611973913075 12.791565586069616 12.656232094757726
Li 16.095301975718804 13.90082356630871 12.60723431910611
Li 10.271882030786948 16.437284861971914 15.459258119829517
Li 14.083026359121417 11.795944065820253 11.426312776019188
Li 18.30734869550691 14.891107297507252 11.394513970815972
Li 9.207720402014742 14.484325757348417 13.388484289937969
Li 12.925784621921656 9.687561577872266 9.699388482109699
Li 9.927754374451498 10.636363707056327 8.603017982417304
Li 12.139002512815136 15.618566545285894 13.436594526595771
Li 13.544433325078005 14.499514439556927 11.31826740861776
Li 15.629885141455278 16.740632694952236 12.143441080169541
Li 10.053610804574351 17.40143658509901 12.34617130796898
Li 14.51427768309939 12.264975630748287 8.731015429152047
Li 11.771108544043562 12.595220257322145 9.669797811162987
Li 7.924193715450172 15.616806359298486 10.713061960326332
Li 15.726528738019555 14.878855993538998 9.722164230044859
Li 10.637413267373827 15.040283266018303 10.81252082262608
Li 12.79638459866663 17.21724084435555 10.894168951630359
Li 12.680753001268307 15.149166660762857 8.597046512033428
Li 9.573509632114419 14.1591880535169 8.291969542619155
Li 10.137015805429261 17.139762663206454 9.185781466199847
