53
Energy = -83.34063218 eV
Li 8.372240878079761 14.554916752886994 15.498784325244445
Li 11.822438166715846 15.18344950843343 16.17342428918534
Li 10.486498652766183 16.113722382327893 13.7704092125796
Li 8.501740154157638 11.222914890331765 15.678460122517619
Li 7.816986020856932 12.502686714360829 12.954176170584788
Li 10.498898328154734 12.91813803375584 17.280322276430663
Li 10.340928559938346 13.191591172959074 14.263118147605912
Li 11.54404881206951 10.232080326261453 16.89181062978842
Li 13.626047290540313 17.290292168530332 14.487883214307942
Li 14.622108107955656 14.549312522361252 16.065227246808227
Li 12.081508620337807 17.192032605867944 11.659152507827276
Li 13.577799634060606 12.454147765776899 18.0333337561456
Li 7.954326614532628 15.441660815361866 12.374382122694753
Li 12.783545868656844 12.349257283736716 15.45205752672924
Li 8.103880614502781 9.332080096430815 13.097560147887727
Li 9.752117874718296 16.36090676409833 9.970929610274144
Li 8.13482410281742 13.470880089578682 9.924637576078364
Li 14.67511809435145 10.138022221630944 16.053020126744478
Li 9.764199715978542 11.167026184401458 11.378698963048933
Li 10.66984056042759 10.199499391935854 14.122179040599779
Li 13.167288846407363 14.862190086882654 13.42123813087862
Li 10.294066250993948 14.152367847374586 11.509549328397181
Li 7.08135226008888 10.608991837944203 10.50893784880395
Li 9.374149957046948 8.21998957346947 15.725465634104856
Li 12.83508292844316 16.622091765188216 8.678535924967319
Li 14.963624146359447 16.87077260554385 11.5171270682118
Li 12.316205655475464 12.308307006817573 12.347753687015153
Li 16.30411801751695 15.252350655742502 13.77251330226411
Li 12.840492926079218 14.702872380098242 10.521052983689977
Li 15.835116589249983 15.670421691341879 8.927155172885023
Li 12.458602642179843 7.960675637555237 15.354582950294793
Li 16.70993184054479 12.369199947455892 15.651739201517685
Li 17.913790229802846 15.3492998223234 11.092369671859833
Li 10.821660643328213 14.057185704102668 8.387513096833281
Li 15.444966957509461 14.087843733997246 11.22438588961736
Li 10.752190876181253 7.55965736634416 12.950153488776344
Li 14.97458072989756 12.53833890897738 13.657020317384022
Li 9.501186400741904 8.524603905221769 10.299208417133752
Li 13.413764249421865 10.033722300516558 13.613051327191592
Li 9.479384073844814 11.08234063067872 8.466974734249131
Li 12.194997711331679 9.339915552024518 11.209691852425197
Li 12.089564085520344 11.766010084185723 9.46742051360841
Li 16.89144459120769 12.531252298577467 9.42902899592602
Li 17.587793708219735 12.648818271750875 12.571986120050878
Li 13.997253053569652 7.446178859453692 12.813986235604217
Li 13.98276285608155 13.54544255300279 8.198632462195443
Li 14.645747186883476 11.375881219872268 10.928747969702531
Li 12.212871847944832 6.718519870735406 10.311892708655531
Li 11.916831337100925 11.757424029441946 6.604525031122931
Li 16.191859669667913 9.92490154288022 13.051102203542637
Li 11.98125906691987 9.128695782991336 8.382753654177085
Li 14.778867455907651 8.641614572936351 10.208315854516178
Li 14.516968226931274 10.699674355328277 8.039970600432603
