5
Energy = -2.21113461 eV
Li 14.577791182056261 11.045969999850719 13.244627210672416
Li 17.06703592886889 9.60819290537171 13.859377462067153
Li 8.073294222416994 15.809543286157274 10.294246219426345
Li 10.028560591315472 14.075940685773105 11.573765982550183
Li 12.238925428974209 12.519482348931637 12.508193775923594
