50
Energy = -77.99808691 eV
Li 16.381427724725736 9.557785518685655 14.717876408493332
Li 15.25456755555967 7.043051398699138 13.547419480133117
Li 16.3178051782567 9.560838480993679 11.65916599813386
Li 14.166519155697765 7.639566807814904 10.771836278115952
Li 11.552107613005093 6.311440394554675 9.64073666907489
Li 18.295490197461092 11.53018538620906 12.897230834666775
Li 12.27473275278463 6.538755507643423 12.805034308696767
Li 12.927465007258213 9.078569948039828 8.453744346267566
Li 17.13533905618962 12.448390569177217 15.580957959579973
Li 14.28480173620534 11.279368517018193 15.814015530329161
Li 13.795366370945425 10.667169905662988 10.895304211479603
Li 16.095312064381226 12.735545898692836 10.540755901747524
Li 13.626856866179834 9.380667433542193 13.386554130337752
Li 13.45575096685448 8.183756174184028 15.831894339505567
Li 15.60030195899691 12.053585563781759 13.223879010437804
Li 11.53569214865711 8.67583178781793 11.01384947292685
Li 9.283207041179299 7.253069066991621 11.52394999715456
Li 9.80307670655049 8.893722299494248 8.7649600761198
Li 11.326392427871372 11.277485585801221 9.568863905121974
Li 14.717187633734458 15.106162032807202 12.030357107758524
Li 17.251209373338234 14.51780053049353 13.183278058313107
Li 10.53381472028821 8.60351282913908 13.958400837384968
Li 13.888943349893266 12.155231296370141 8.26815061982936
Li 14.914528204516856 14.398258682900233 15.065936071973365
Li 12.990510104501595 12.65714334997069 13.560039474954266
Li 8.915337884103826 10.393840070785819 11.286595918459335
Li 11.424195497648093 10.874243144599594 15.56482956894795
Li 13.126963767140586 13.318643289904111 10.829501013816293
Li 11.21195559433279 10.9561651050347 12.614715776316203
Li 14.201903304309873 15.33083817561413 9.113108107774995
Li 12.33122063605074 13.665404587848153 16.372095568764806
Li 14.908986341240155 17.196710933339727 13.899696558644337
Li 12.397502586394879 15.39737177153878 13.770886532390865
Li 8.573444275257785 11.176079831286737 14.25054697703343
Li 11.44277178084541 14.082941429948683 8.510774870624527
Li 13.139410243789326 16.64075244467415 16.30399206476419
Li 8.786279998356392 12.463404478372363 9.00153756206501
Li 10.207215773642803 13.389397888712958 14.253136537155664
Li 13.563787691347722 17.844568588206776 11.064435072374366
Li 9.44510555311178 12.801072466240658 16.96730794001045
Li 11.759156686423708 15.9039482650682 10.972826793629675
Li 7.795799315084809 13.361154837375986 11.962165025532027
Li 11.716361632196904 17.17043513434982 8.477526868323837
Li 10.233811338695846 15.778614385216237 15.842738405760722
Li 11.787188541074453 18.00068447903661 13.695060769429196
Li 7.6529388808255785 14.206103348650133 14.915745092848463
Li 10.388363461297036 13.382421611309862 11.372144755189526
Li 9.113853633681279 15.589164585101374 9.790369059232026
Li 10.342638265693742 18.300259597830095 10.928555501602094
Li 9.448496264900745 15.95630943826188 12.848215926414117
