5
Energy = -5.01905536 eV
Li 8.930188452028416 9.9211759620372 9.064830071200767
Li 10.39484874684559 11.751754520909158 10.913874651257355
Li 11.623627773856137 13.754482994508663 12.740191555037445
Li 12.801179485138071 11.047030522577753 12.341900345332409
Li 11.484799911905588 9.113134438405087 10.376410533119955
