54
Energy = -85.44795324 eV
Li 8.298588574669196 11.23253618176577 14.38361327242471
Li 10.278313816217873 8.965739162386726 13.146264867286293
Li 7.148632998968355 14.046222935147892 15.268457302515612
Li 12.844580344592977 10.003505165146706 12.023838273916173
Li 12.781884157049657 7.396953827246414 11.653683726349671
Li 9.835073880439111 13.11919402924946 16.589663920895926
Li 10.356527026961878 9.485649072684135 16.273560226771984
Li 10.037971084481013 11.593887899234637 12.063896438884264
Li 7.84881574625599 10.064330134938482 11.403054778197017
Li 12.593848894247142 11.428050040656196 17.369657720204994
Li 11.93753805941807 7.04456069391904 14.731561597941006
Li 7.418177583147409 13.17483422979516 12.069070110926479
Li 7.600267062574226 16.177664047644573 13.189510813128331
Li 11.045786207707868 14.240509551406728 11.356180131869843
Li 12.904535114328262 12.696386937425114 12.578213571004444
Li 15.875630015679338 9.027481258065377 11.28963587476447
Li 9.19207086336591 12.307018841651082 9.50719407931953
Li 9.375401256057701 14.146374276208553 13.689908301080703
Li 13.214462705486232 8.343718192716103 17.16325137642085
Li 10.63943982286798 9.340183276044582 10.090377752838211
Li 9.696906819765003 16.112663516101957 15.724968744986086
Li 14.88340746906663 7.998996896935698 14.095839249629792
Li 13.667406379361324 9.495600329595268 9.139882649550161
Li 11.136589687842992 11.814122142211776 14.606708273077482
Li 8.913763458745084 15.464259313000387 10.39989009832966
Li 11.303074376973724 10.959996473813579 7.436187959405973
Li 12.814212764900976 9.697864850384187 14.851132628274787
Li 10.589745173187724 16.917964671488292 12.760638484013644
Li 12.5664699240871 14.667734623281499 17.135424520601507
Li 11.975103951958843 14.672813889237535 14.505603634254944
Li 15.485007816215283 10.296409878447664 16.198814461512843
Li 12.077746094539336 11.822829032705108 9.881768266610226
Li 15.273085388569706 10.902245629794162 13.384389693623104
Li 14.151912733697738 12.435648450688921 7.841241821701467
Li 17.663664808003546 9.635374031310077 13.863590569235477
Li 13.958551884595552 12.5955991232879 15.249304451856913
Li 14.92583309552656 11.70696990894503 10.557121878974666
Li 16.78243272403155 10.747328059986486 8.797657576730549
Li 13.653174476735659 14.343345851917634 10.037117048418596
Li 16.46575346984331 13.932388291212334 9.50126263292807
Li 13.342154022473306 16.00135025346255 12.505321207660936
Li 13.179300308414062 18.706714685000374 12.00072591287289
Li 12.063023398955625 16.74298401614031 9.850899427599703
Li 12.763501749074129 17.374527675758248 15.008151682022953
Li 15.342970016384822 13.144831665089024 17.545867042528837
Li 16.996552213916733 12.810100013730004 14.689134045220625
Li 17.552349651827395 11.894250924603588 11.656662009618763
Li 11.38006470450318 14.157160218284 8.240854244545899
Li 15.264200126222317 16.713168956809078 10.437989642804611
Li 17.601921385369327 15.158671911426966 12.369400403263072
Li 15.009205869611934 15.166240739650501 15.174457512662679
Li 14.170354045362776 15.68263189463427 7.683352215890023
Li 15.308913283777708 13.9741906088883 12.499871791639922
Li 15.586313825134717 17.324923067411397 13.346614509091742
