51
Energy = -80.21896282 eV
Li 6.84920496522332 9.670771919944611 14.520281453573856
Li 6.509727304807686 11.156275749203749 11.779692870912491
Li 6.613508183776186 12.899604895266425 14.489377951973394
Li 8.669936034880749 8.769924064492338 11.89931170474476
Li 8.94953136918001 11.40256108888976 16.254567472887977
Li 9.323239843201863 11.331512283519396 10.329372180607383
Li 9.954334464637983 8.874430332897452 14.75944901307161
Li 7.982143460441123 13.962880228476642 11.861663360769349
Li 11.265546420396198 9.934902263117177 12.470560955531786
Li 8.703462699067613 11.280442729730211 13.369755785088582
Li 11.671923118105362 7.113035517276898 12.083506850115793
Li 8.499960351150719 16.955922806210836 10.71559449632047
Li 9.388717775160297 13.903314821468442 14.511725570522202
Li 10.714191084285092 12.846803223891284 12.020459927442142
Li 11.35577806678826 13.625270009472418 16.827584260121448
Li 12.070917027881695 10.375995726989597 16.956964451464973
Li 13.109365704060986 11.614395651590565 11.299806788808816
Li 11.37010519683366 11.555894109963903 14.682914983671736
Li 10.04540048430038 14.472939243492325 9.560645889395252
Li 13.133422452880197 8.500473548104274 14.490161124590145
Li 7.993263939909303 16.428931892391184 13.763685969414542
Li 13.815670935650592 6.978897193251928 9.671977329407284
Li 14.814327091135265 6.445068410362954 12.621586217336555
Li 11.621023816218202 9.241310634015088 9.808244800527948
Li 12.275991815405472 14.088316525484226 13.985202421807108
Li 10.390643700175245 18.41347111020702 12.770318425323289
Li 15.238035351964259 9.943011233019774 16.24753161956678
Li 16.18471959274094 9.022078041541645 13.568054116422049
Li 10.34100700162306 15.746599877562346 12.325250239662616
Li 12.099725809164642 12.232712342106797 8.8265472559649
Li 10.997512704325027 16.45007930186357 15.11228371555803
Li 14.512135398501872 10.093837573011898 9.100167448892591
Li 12.604205128789427 14.492998811746576 10.821440209382938
Li 16.533804279813378 8.31447784535005 10.47770341480889
Li 14.018684361376568 12.615812122241772 16.052733540903745
Li 13.979918719990474 8.835707858564115 11.67012348951133
Li 14.08060591815045 11.00392707118838 13.81689252942838
Li 14.949179614649035 13.110755922208337 9.599050126535484
Li 11.653274509124309 17.112420443232164 10.115214126738277
Li 14.67986898680078 13.725169412194093 12.645614111843324
Li 13.128212800617602 16.645794406372662 12.884295092822553
Li 16.01163521269085 11.143464810734347 11.524351602551679
Li 14.740901423889639 12.362527344388218 6.992563580472808
Li 15.06627872375124 15.931961233097116 10.504286075403222
Li 13.324820130211274 14.988939103967214 8.06059081510766
Li 14.025637814335742 15.494802773077161 15.622650447503712
Li 17.229865053338212 11.540381968001407 8.835224508232542
Li 16.61251911766572 12.506610908368312 14.357754540157517
Li 17.271736512164217 13.83542261635534 11.169878818447973
Li 16.631176917669073 14.613488720631798 8.08781874206549
Li 16.313801661887563 15.686516517183986 13.484457169638672
