55
Energy = -86.90378673 eV
Li 9.922107745860918 12.144146209956821 13.910576131743301
Li 14.58695073715925 16.960246649040595 10.77893947896498
Li 17.784180547347678 16.9235285919148 11.392903421719723
Li 11.211284100955577 14.54705506673198 15.173937330699824
Li 12.66231733761331 18.62145246703575 12.752748271857877
Li 10.096408465450011 15.974061342123322 17.377375362023553
Li 19.99051037731729 12.51493523869733 12.714636864111869
Li 14.485015851619565 13.511130734823748 15.157094960315296
Li 15.365116061342208 15.014082859153904 17.901426352394957
Li 17.527743806413316 9.88355540229537 13.246436635003507
Li 15.178429252481738 11.825696153834619 9.11000315210037
Li 12.543348977413881 14.078301321135053 17.69011692950522
Li 10.620633781720667 13.659970981329117 11.252021153412178
Li 14.969463414910555 8.024523719881554 14.11700045720318
Li 13.377628319604572 9.306541001862342 16.46609158085305
Li 12.656067990236863 12.910185150766843 13.17138832506389
Li 17.453856173011715 12.914984948576457 17.009690662403713
Li 8.333618741909808 14.57918841396488 15.261494406020974
Li 12.227113560029581 9.886514307066394 13.530544351627965
Li 12.139765543086392 11.778293050354037 15.870745531063475
Li 14.649093394335278 11.903245685585993 17.42175836696282
Li 19.449452354113767 14.39437289026679 10.096673769050051
Li 10.193126057309573 9.849260338386479 16.139779154525932
Li 9.77531822430136 18.454878420748656 12.417598209762604
Li 11.375927937111594 16.66383797645126 10.40511323731098
Li 13.728680368226726 16.202546816861453 15.493952345126747
Li 15.370190914748953 15.077725480573193 12.824824155769397
Li 15.084751654582753 9.692597330309944 11.514994517441092
Li 17.19339593502247 12.465117431622925 14.21252224985532
Li 11.86747436533491 11.104670527343291 18.598772764074486
Li 16.594624112105716 9.899128205052772 16.170556281836163
Li 14.74535949926955 10.785798839527759 14.280751605317436
Li 9.79422250749675 12.728571084582374 17.132110729521617
Li 19.388167637627983 11.188308790280214 15.46659299269145
Li 16.42466652230808 14.503513388280888 10.076030494724968
Li 18.118403917523068 14.545311298632082 12.565261302997014
Li 20.61526828670559 15.732905596066049 12.612367661889847
Li 15.452324098469214 17.703564110998602 13.739648034127347
Li 12.591662330905335 15.821113773746154 12.786348935435488
Li 15.987714430825662 17.73058595639266 16.76423560289709
Li 18.48148289894618 17.09677313776379 14.485448816744084
Li 16.70916035740177 15.264751195086102 15.385840832104405
Li 13.423598297520801 14.184911698950225 10.412097152803033
Li 15.219577623782877 12.428554099769977 11.949546909156313
Li 12.609690867900673 11.30829873510821 10.845501307541339
Li 18.416187531957092 15.912830803363848 17.56008785374763
Li 13.386226863560887 19.238067953362165 15.798848382435043
Li 12.965032106032174 17.156123594222816 17.985106737996727
Li 10.58021135460338 19.045647673015843 17.434471037419158
Li 8.549045640002896 17.802738445643357 15.297330179070864
Li 17.68795038172553 11.87615563845084 10.915434245909347
Li 11.200039874424347 17.545771378951436 15.075796726209752
Li 9.732358798740108 15.734720585024627 13.044824194413383
Li 19.517405509393296 14.272469363147655 15.158603347490304
Li 10.611779482140692 20.247871067826416 14.667131429493267
