5
Energy = -4.92848141 eV
Li 9.566942793444944 9.005491956113497 10.440424233214744
Li 9.30150302846392 6.939788621663361 8.545662363842856
Li 6.932171258565939 8.29163516743358 9.05002661699318
Li 8.293793033840402 10.864604154047116 8.96425483592994
Li 10.291455696338238 9.263501924717275 7.368566593589442
