5
Energy = -5.07369352 eV
Li 12.003138539082725 12.600926913337618 9.918253567584367
Li 11.745567503334726 10.993758708720652 12.302351923738739
Li 11.42794951581067 9.791367247114044 9.586179129004636
Li 9.361634572339693 11.692096756332424 10.630777856579638
Li 9.67200246896319 9.063219822872586 11.760901891953901
