53
Energy = -83.55966685 eV
Li 14.860970436854826 14.199539380717725 17.717777057271167
Li 11.955199354273152 12.921232636073503 17.380722772584626
Li 16.672996912978416 12.780675698754042 15.588470035732717
Li 16.455161598815895 9.905723143414832 15.495202760967327
Li 9.102573636695237 11.659428198640837 17.11220297623138
Li 12.619503959627506 15.65692967632431 16.013786457449143
Li 14.448307090146775 11.148405299126644 17.301097411246104
Li 9.745777704944702 14.42078091563898 15.769362640981083
Li 15.601029199533137 15.628963230718748 15.030851683154332
Li 13.886146263125948 13.253787742073637 15.221895476164287
Li 13.56415269310931 10.303440438208893 14.69804201868816
Li 13.382577280472265 16.975166992876517 13.274835310616904
Li 14.275050626637817 8.082802500580478 16.388312754959145
Li 12.803482617082944 12.416692924427277 12.729233679834545
Li 7.925266095153342 12.375588190447356 14.257987424393798
Li 10.429013693449916 17.270658233370323 14.501748536961417
Li 10.92737479785437 11.916283883926445 14.927801426167006
Li 8.69944882052086 15.227623832221468 12.963682683375705
Li 11.512148389276362 14.778108443939228 13.49261917008844
Li 14.766330354793404 14.563916801994552 12.470501674608816
Li 17.51188715983186 14.03109522114837 12.987665108139277
Li 11.65092930711711 9.784773405007734 16.766147188573953
Li 16.31966387890003 16.928163503718554 12.27373675132141
Li 9.823840810796414 12.529203942887868 12.253043362880497
Li 18.141037985489223 10.5278049378081 13.082045586457555
Li 12.176634018494077 7.903655815209917 14.173858173132096
Li 8.108570107956366 16.57045984135497 10.160324069441526
Li 16.251518891331024 14.83775914374653 9.93295343079833
Li 15.674383059960448 11.64840451782424 12.98771356679048
Li 15.306016132961302 8.482821799629637 13.17323339879429
Li 13.89246351799341 16.829978534948058 10.195255822055882
Li 14.707517520413061 12.446043382624246 10.262308138062206
Li 11.069059277707895 9.896899602677543 12.589665321912394
Li 10.911474410832177 16.893037855729023 11.44561269134902
Li 9.763260526849319 14.392337602348336 10.186955987961358
Li 12.52192720495943 14.542205079128255 10.634774725370232
Li 7.205440232458716 13.44514643566083 11.048551155078174
Li 16.084552918287443 9.71056889233563 10.308183598860388
Li 9.27517740072213 9.520936997751408 14.756285476947633
Li 17.533984818700798 12.261155475410149 10.622895454273053
Li 11.668874816152229 11.910303048331416 10.194275282584126
Li 8.252169707622215 10.239274926826845 11.870121007880376
Li 12.852384978649264 7.502292530919704 11.203317862848474
Li 13.564154517553588 10.079014208718865 11.471522003674021
Li 8.265171944331131 14.431330673176666 7.9611731038866
Li 13.83813482712955 14.184028684532418 8.16139978317611
Li 11.072515950769562 16.124267156029816 8.449502400302768
Li 16.189122423275087 12.165291278723908 7.944926818144991
Li 9.780892542915964 7.481930232227742 12.253971327793105
Li 8.912518523971261 11.682105977685312 9.285493528743118
Li 13.470466286215109 10.567546754869603 8.464018245990237
Li 11.099086105097394 13.047560312244416 7.749107960510319
Li 10.727885375680472 9.273088069395941 9.83579125458076
