51
Energy = -80.11548972 eV
Li 17.179408207141762 11.652803611927537 11.198975693637104
Li 18.69127394558791 14.422686364079953 11.948934960359923
Li 17.762468925684587 12.308439190545407 14.253000729180393
Li 16.987111688240986 15.29786189802715 14.442711855246445
Li 14.204195637071056 15.95813590761588 9.405631321790542
Li 15.319361999192328 13.32296374018775 16.41805890949833
Li 16.83294095289918 14.197180453068661 9.341958527236299
Li 16.266880854640387 16.65751838931918 11.586227040570577
Li 14.969070897743421 10.330425249281536 16.194090514211645
Li 16.469367812859474 9.256907548018162 13.336141401581019
Li 16.04953068566954 14.034349147948978 12.247748582383355
Li 15.46088706746863 11.167291206367354 8.42347246746789
Li 13.406927288244098 15.570179745667357 11.977622072720534
Li 13.212994760391476 13.643513331283144 7.7613338657695365
Li 14.655514168576376 17.248162553675783 14.049894392818832
Li 12.125747991056185 14.647444509919739 16.333152148862045
Li 14.029057574854432 14.386873738643619 14.232215884206905
Li 13.13140689067179 18.19301693724001 11.466339983759408
Li 12.841657761450753 12.02936202587237 15.29639929893818
Li 13.448605179389087 9.396878073959964 13.809622423925527
Li 14.503273682348121 13.045374930034974 10.287054554128359
Li 15.211040427091254 11.729480970344444 13.636204336457055
Li 14.586952858969141 10.024513426481743 11.084084033818142
Li 13.593553035049268 7.109432570461068 11.925408111875958
Li 13.07065128342339 8.268697410159147 9.02189866255333
Li 12.482474202491144 11.173890485980216 9.2480881999581
Li 12.857661076944995 12.14661999328676 12.308291057874634
Li 10.867388729599755 10.629177876980943 13.72879963687214
Li 11.723018312963784 16.755048425568415 14.197395590015093
Li 11.795948112132445 14.017481310112961 10.309153400347123
Li 11.796874799074416 9.171130066247684 11.354815829959467
Li 11.160580241640549 16.06550242378243 8.744117267497812
Li 10.893363259813427 7.665389430137939 13.724506340018205
Li 10.300230203948303 11.645611920162143 11.025610222515452
Li 10.568412866669215 16.442398899991396 11.670928726005988
Li 11.064572109811552 13.90308973191838 13.396981044925669
Li 11.644073059393454 9.587941865290675 16.29068516386705
Li 10.69348051110474 6.804895478632985 10.661500868408817
Li 10.029687217685533 12.41564690278408 15.943534255706142
Li 9.986935052303064 12.858367573303074 8.407595212066898
Li 12.764428503253479 12.047680474723947 17.97771766089094
Li 9.912404351953743 9.506719114632226 9.126649406251813
Li 8.517383445548342 12.17371589999823 13.22025963116075
Li 8.577204669724564 9.750359026936035 15.098685882148581
Li 8.905508663495487 14.20566728529301 10.979542209276923
Li 8.824026491565798 9.128201021974988 11.9933196909234
Li 8.677142673655068 15.079150234339737 14.210749465946911
Li 7.5738975958974475 11.49979510275545 10.361415631379852
Li 6.9047880557824985 12.549166157680949 15.40074867130479
Li 6.30365861746478 10.58716906795592 13.094466090206922
Li 6.280330062964633 13.612396727986193 12.546321293791557
