52
Energy = -81.27821911 eV
Li 14.294006132747484 17.0395225090461 15.700504112088225
Li 12.222999517710928 14.928557381059667 16.474343965095013
Li 11.584241503737761 16.968963329075763 13.859977356778508
Li 14.277922391058661 17.654512884137716 12.683652335592466
Li 9.29619308395359 16.115799009945817 15.609133533818554
Li 16.45883759101829 15.72598826313908 13.682125095125391
Li 15.253464586676195 14.04064726932556 15.965738893217779
Li 9.609543710477999 13.368989811734526 16.908740939253775
Li 13.274921876035213 12.196820857927072 17.68659899048291
Li 11.892797813718294 17.451737781451037 10.722950915107134
Li 13.652015770787537 15.10340822997833 13.80873073821627
Li 10.681284017350166 14.032857888418928 14.26627446425489
Li 9.155127843944214 15.88612029026941 12.380315552311245
Li 14.787063799555439 15.440369995309378 10.954152160923984
Li 15.400396573282334 11.071502202443899 15.041145484212587
Li 17.506506825539493 11.121062764924163 12.746001395272332
Li 15.33748916002783 13.098724942336961 12.779094937916625
Li 7.958330700558709 13.635921184866683 14.340025907645236
Li 10.960333541343712 11.064255662756194 16.172288020848793
Li 13.333559806947692 9.224954911880763 16.30342500244609
Li 13.023954090945297 12.387886652296114 14.964333946880593
Li 17.486381095325083 14.131440444268922 11.256680792112695
Li 11.931320361833043 14.910105775672688 11.503341544345984
Li 12.369351463501967 12.302671838979816 12.344146269907352
Li 15.44737920922684 8.387570875058184 13.764506349912365
Li 16.69306898239675 8.676415095945227 10.885123591262953
Li 10.275607175686124 8.416506953287623 15.22754575518289
Li 14.839627534151637 10.442490156512259 11.914527415629973
Li 7.98041818432301 10.801304049097125 15.532316705949574
Li 13.986471131285446 12.747945785125262 9.997532505608477
Li 16.612915044189464 11.671119739230216 9.831366120417092
Li 15.978945892379032 14.415710806231202 8.525147694229112
Li 9.53943610768852 13.09427447498819 11.679331593484855
Li 12.64667644365303 9.592374875762609 13.678379191145716
Li 11.084091999473383 12.59256534578321 9.350790362970583
Li 12.825589833711788 15.109942973605492 8.584837354759673
Li 9.877927298409306 10.909460903465547 13.52575014397255
Li 9.908486715121658 15.30508147260922 9.39526680414502
Li 12.772816590369185 6.833160184131197 14.245215065427052
Li 13.635545665211437 7.763108875927062 11.316737571149375
Li 7.966196273080536 8.777108945922999 13.21542491489737
Li 13.874907081910289 12.601701593495214 7.266611957035085
Li 7.137976312956594 11.55543136063938 12.318590730733074
Li 14.453580198787913 9.72202671782447 9.032889711249684
Li 12.075568941309724 10.172191507355896 10.61816031706765
Li 7.987611652245442 12.961899102194616 9.413287487045983
Li 10.712375969479204 7.989764045187501 12.266441075664348
Li 10.636265004937602 13.311785517715569 6.8367142086514
Li 9.21620633298058 10.19719101416114 10.734183511017212
Li 11.970473735855148 10.466948598774099 7.593401942758733
Li 10.978009937362783 8.081991611738603 9.154520617299104
Li 9.198720276869196 10.656701428324585 7.952187004783749
