52
Energy = -81.50726282 eV
Li 10.364304191522907 16.256051758022558 10.160242502299708
Li 12.683221424707607 15.090671218593707 7.71008339137219
Li 14.836834033337082 13.344548079503538 6.344383057861235
Li 9.57029904111436 13.493992670630517 8.866271022746789
Li 7.828658254097322 11.69385454516322 11.25478092446731
Li 12.436677422350336 11.826769293796639 7.9814304333848005
Li 15.779169022680419 15.6373557205944 8.515920150037354
Li 7.417527677783502 14.886298801603646 10.869811268827046
Li 9.73943215681727 13.764396219874696 11.730366341739423
Li 17.392324770850678 12.910113339085992 8.001944708191772
Li 10.855334899195492 11.273198849148924 10.46756343263495
Li 12.209786860301149 13.850949819188832 10.090912902460937
Li 13.477404007239828 16.6620673716492 10.340599739483375
Li 14.872776515370914 13.180086632028075 9.049492353749192
Li 15.150830354637376 10.337409261692677 8.253379668102239
Li 12.351092695276968 12.667611553098656 12.58147920875197
Li 9.272030055431921 16.27196005055522 13.080344545472734
Li 9.387767531152454 9.05313413044973 11.627865831189565
Li 7.70700410391213 10.010053936678155 14.201440520376094
Li 17.284061515247604 14.199695775990692 10.835405249965865
Li 12.485132805601511 8.817672781405438 9.779396776018489
Li 11.78066286386052 18.30152376526151 12.37660232896227
Li 16.339509051124683 16.91412018611297 11.557773111258582
Li 8.94035683532457 8.220747391450525 16.61625173827381
Li 11.27469436379582 6.8832736875852625 12.168230397694792
Li 14.63930231228821 14.352723858944712 11.646022969453524
Li 9.96809192000759 11.31019640182949 13.352910669133314
Li 16.656107117061925 11.3172008764785 10.68843276466039
Li 13.809982376899365 11.205710861874019 10.603184816637105
Li 11.938702145515357 15.534842479804508 12.538116310605186
Li 8.359327875743181 7.049285390714412 13.67981904176915
Li 7.781535299151199 13.284083281448526 13.841873868545754
Li 16.813995951003488 17.66722103895268 14.628619414370313
Li 15.014958931538509 8.807835574942073 11.719239536511948
Li 12.473898462207977 9.66317164219625 12.724571047503325
Li 11.888401116308929 16.570246977572932 15.187698560521211
Li 16.428802136645377 14.722810823729667 13.957509917503018
Li 9.936354199658044 11.17551960009467 16.357789280797068
Li 13.31947754329039 7.278725455561472 14.127435019487693
Li 15.128751886667162 11.90767444676844 13.169216972738692
Li 14.295986079067065 16.828558364269135 13.518716097809369
Li 13.579204488349182 14.14478106236724 14.539884667200575
Li 10.44326906155432 8.64872986027659 14.374260692807846
Li 14.696766147423759 9.670007598469772 15.109188749454349
Li 10.774536134554038 6.031569929694457 15.291230055149281
Li 10.590929437293132 13.849641373174025 14.636806347179718
Li 12.471758968195699 11.297976170808578 15.193770873739995
Li 14.856802262547154 15.81678672058129 16.390156235571723
Li 12.068459073034159 8.575432843143142 16.559593174120142
Li 15.10042155828341 12.592598945574393 16.281382798051684
Li 12.365100556820982 13.801546203874949 17.029723441329853
Li 12.91311581970972 11.005243984106983 17.964114683596087
