51
Energy = -80.04493046 eV
Li 17.258985236884378 9.467796387117803 10.977473919238857
Li 19.04903134611703 11.66698914401407 12.846445266233466
Li 14.33055234555883 13.160470021754861 9.38498342555445
Li 15.11016244003633 10.76971540684107 7.896157022758636
Li 17.204002390599744 12.294123045286948 9.897203989726457
Li 12.215273829250506 9.772983793604935 6.8752754452517415
Li 16.420512564901607 15.209163551339337 9.016729666891944
Li 12.637155921185835 12.922288071195377 7.107994072153615
Li 13.751519952055753 8.451163259305295 9.351221469081178
Li 17.050817514588708 9.400722332307216 14.029860999949104
Li 15.427332786245584 14.185799528524118 11.57085566974409
Li 13.418324956467396 16.009992817164505 9.636280157446187
Li 16.484648166670944 11.920604733531736 12.689667911840836
Li 10.591024889773204 8.869064796926146 9.52774808468419
Li 12.993382806416657 12.44005797213197 11.910943525282491
Li 18.212221436847397 14.557328066418586 11.527273085815196
Li 9.917441833935655 11.714949166685816 8.23120990902941
Li 12.406512838818733 10.988228596994317 9.264582611424334
Li 14.724736259780144 8.038074372524875 12.369558396908857
Li 15.6992534659238 16.825067565968972 11.755587601576442
Li 11.4599932841913 13.741125506180957 9.87578491776967
Li 12.23451368644501 9.55788592956153 11.989849205319908
Li 14.781983516522164 10.653577803015635 10.86651962746998
Li 12.850142786551583 15.295784049062814 12.285405919885722
Li 14.309101026755188 13.295557656719728 14.160644769621413
Li 10.181035033758063 11.40421322953988 11.239193081035646
Li 12.434474841528495 8.694367192257205 14.979498225296595
Li 10.422370724979801 13.768847634226105 12.827293525862036
Li 14.39064412488098 10.446225569270839 13.85418349088734
Li 11.657484993943203 11.504765959481302 14.29922472345363
Li 16.772214573574495 14.65417242549544 14.192757973354722
Li 14.093575924498285 16.354866910964382 14.51312770219971
Li 16.538391229704153 11.97261720331876 15.59334033615814
Li 9.61737261236849 9.767910379402057 13.824533174534624
Li 8.520425319517187 13.818924093381325 10.537415408332949
Li 10.405362937530565 16.275656385044947 11.147853174583036
Li 12.815111431365704 18.064249319765647 12.025307322446636
Li 11.922173150894249 14.28745425184561 15.237272200924771
Li 10.464717952167398 10.523259848830257 16.78488033282488
Li 7.767842751440055 12.195686747829352 13.09192272547336
Li 9.250465033277544 12.764400664517622 15.416025088696246
Li 13.51244490508259 11.370082991230591 16.460821036989675
Li 14.485283745391538 14.286701328400486 16.807045982995557
Li 8.207938827015955 15.221686449886421 13.450163124236944
Li 11.378275886877633 13.37657557255757 17.728329809497836
Li 12.121922873516427 16.34480773567801 17.154422280293595
Li 10.941899398816451 16.686194506010555 14.162222947383414
Li 7.455227194728051 10.754315235373848 15.939971806000946
Li 9.271684737902422 15.325221553263646 16.455041647227112
Li 8.355856915776952 12.813428130361642 18.069173149386195
Li 6.644692154597531 13.712031532979019 15.651266904358279
