53
Energy = -83.38600962 eV
Li 18.083662084116753 15.94990281484402 11.532274799688986
Li 18.21848453251808 14.004278744925717 14.20137635028809
Li 18.06667193999952 12.669686930346213 11.467404149405604
Li 16.356976162769744 16.828378549800302 14.026398834969664
Li 13.972583242065358 16.493582345717346 16.603437144390366
Li 16.00175653652091 14.690125274557104 9.401589031054504
Li 18.6780019102429 10.799246970171767 14.064781130716218
Li 15.472686463513563 14.314022704037841 15.305741296383296
Li 16.54738204347485 9.630922535787372 11.950998883138693
Li 15.91976770351785 14.628509693854594 12.31298121111339
Li 14.964803036347668 17.11131807691635 10.981108790808328
Li 13.50679898222831 16.07452698394389 13.533775585334212
Li 15.191987147217402 12.19596017708148 10.952357253611483
Li 12.518005706007674 14.233533038815029 15.725241118080111
Li 13.494618228893234 12.803401630837017 8.61528862513496
Li 15.726686917774666 9.270417019622363 14.9610347662012
Li 16.81321835473892 11.858210855808405 16.50705296310918
Li 14.29507041182972 13.417733748401234 17.955248172555827
Li 16.28971582741092 11.930705408508135 13.655075880210845
Li 13.671184475823646 13.20092183413615 13.366365269712404
Li 13.836015619694399 9.740689512790171 10.039926135195419
Li 13.915570500693933 10.327694348258932 12.988448115368241
Li 13.38846282443196 14.740175018402391 10.86344806486493
Li 11.175716025541318 16.655994283031802 11.41302453450565
Li 12.95775489854086 15.818236809000602 8.37865490049194
Li 10.942285891262292 14.317089158919933 12.930773851052093
Li 14.059654251254381 11.64964763414857 15.613451104448869
Li 9.616671285091352 11.812680683949138 11.35817533918427
Li 11.56851682171009 15.143387246714655 18.150241918864175
Li 11.0531372830191 12.79865767065333 6.896197785085299
Li 11.739909586750056 11.91653038093323 17.258734608754576
Li 12.899990417659229 10.150483684287206 6.982259374502923
Li 13.928751670232367 7.635628020558782 12.402909565204867
Li 12.27200339118921 9.244186691456175 15.195980122764372
Li 10.781672098107254 14.041192648626447 9.713901689187162
Li 11.209628214823868 10.925318859621598 9.015276650969945
Li 11.123209579999383 16.615083900325228 15.20154644269829
Li 14.299416863070348 10.183809696262882 17.857856789792137
Li 9.690498519236979 13.93180084016215 15.905029214815078
Li 12.341486116861176 12.098358575797079 11.321268556760955
Li 8.156534221168151 14.310088241874189 11.207688667556244
Li 9.233557810351623 10.779059966600194 16.018093219617093
Li 11.53655634477598 8.14162030174833 9.045623421324496
Li 11.421898989653878 9.368979074241595 11.866866400336596
Li 8.598094478386585 15.799222052712341 13.649403931912442
Li 11.199830988282946 11.697136311768524 14.174517988345505
Li 8.468608727719625 12.208815580446606 8.73483822595949
Li 9.819577882306186 9.897366702940623 6.976360363641928
Li 8.354999757355285 12.680534618907082 13.7008584837244
Li 6.784932883844973 11.562370215052333 11.463327131175653
Li 8.812959021011538 9.454658147828917 10.031009595696382
Li 5.981080024332836 14.124271103165851 13.373339296658603
Li 8.825491328328122 9.76194629657856 13.217504664724697
