52
Energy = -81.64239552 eV
Li 17.7018471988985 14.402685191755138 11.161959783075108
Li 16.84043471189839 11.437560294948335 11.356882206595337
Li 16.345097729034208 13.418831732095299 13.768919286270593
Li 16.138284618931678 13.095477350178793 8.566943135791835
Li 16.985359431390776 10.454547728674589 14.447599616967242
Li 15.520816819893009 16.217752396335907 12.909981842669916
Li 15.812105091983312 16.176493388962513 9.642067900623202
Li 14.258666720264943 15.210372660150021 15.882631619116067
Li 15.942225201572594 9.509877412828287 9.113077379771248
Li 15.796020507247212 8.567407711872576 12.239294612129566
Li 14.964855238165498 14.01427039667189 11.110642000073208
Li 14.839240301310396 12.158320969938359 16.044901566595378
Li 14.253040552513575 11.594774149180093 9.97701688596515
Li 12.356807769840117 13.639908731929356 17.722555159726372
Li 14.016058021999818 9.271290115647547 14.950275280249473
Li 13.534025833639932 14.889260572105284 8.017097506424752
Li 13.435551972225623 14.111925518943695 13.510179782678343
Li 12.517486705768832 16.950579973929774 14.10126889532583
Li 14.623574950664333 11.227729530786961 13.037369669604976
Li 14.334168043255238 6.7823986566442525 10.015694071641535
Li 11.795570274528263 16.726872711961075 17.076639325751454
Li 13.041702191352858 16.282669185641243 11.013061716255223
Li 13.56498313984316 9.216113487323987 10.921859831141932
Li 12.86864228909565 7.101325454001036 12.791308603520994
Li 12.68473028687075 10.541820397529252 17.587923185999756
Li 13.189392926590049 8.906526254965318 8.118635567516911
Li 12.262828677281629 11.830307440348628 15.123558706419704
Li 11.120074404185324 14.577786662744389 15.437323669239097
Li 11.353984035280288 10.837625744334463 9.557915445163443
Li 10.874102021527962 9.235074464774709 15.55381252175793
Li 12.200517187498496 12.1036244538125 12.028826463832019
Li 9.41915376642686 14.960910160023861 17.59909770234655
Li 10.896768533383563 14.999914802968599 12.556451721886354
Li 12.253037628487004 13.748368612044214 9.971290529031666
Li 9.702257446606406 7.6438820735713655 13.247380947008699
Li 9.44307763135986 16.663174878577117 14.811025876463185
Li 13.20096295548568 11.810777229313663 7.396895693049546
Li 11.065352193579178 8.012865803311506 10.209283731553608
Li 9.903735746373957 12.464159637894335 13.609613706989645
Li 9.899614213315822 11.992539183683997 16.754548279399852
Li 11.764479211843916 9.629212257817905 12.975067841122298
Li 8.2812673058595 10.389864066057568 14.538836965260865
Li 9.593948192824588 13.041949840369977 10.726163792238806
Li 8.062797193489395 13.843666954167375 15.013566157743904
Li 10.535275760119589 9.873722539308478 7.0939386291562405
Li 10.18110839586822 15.70812697847024 9.62467509853907
Li 8.149483408951957 15.172525652761337 12.195529363481347
Li 10.35586950643128 13.073989314341691 7.834578880053289
Li 9.403114954559836 10.203393432612051 11.743331216237497
Li 7.238091850713303 12.270530294696442 12.127017860729355
Li 8.379814482185571 11.014414530628345 9.086481992256997
Li 7.500286471282048 14.009124905264054 9.311441613670572
