5
Energy = -4.71591319 eV
Li 9.370121036836542 6.977591552392853 7.128554167753968
Li 9.080545880864403 8.983400003243155 9.157146799460032
Li 11.638275658372471 8.722846079101672 7.881762380697133
Li 7.0132510034107245 9.175624949099047 11.1703500780007
Li 8.34605984017627 11.576491016568367 10.077321279047792
