5
Energy = -5.0490444 eV
Li 8.239270979897642 9.790924142781229 7.910753765491764
Li 10.512938698747124 8.62303354622023 8.869425324484707
Li 7.685180372676975 10.260521736033464 10.709371660954925
Li 9.364025170364194 6.916668354908317 6.7141138545178265
Li 7.449795209120988 7.660062650863562 9.047545825357696
