55
Energy = -86.77876629 eV
Li 13.348648376045865 13.557590180246784 12.802818360537069
Li 11.552432885651617 8.98224709996167 11.446231588122023
Li 12.690103178354331 9.035374534635434 14.344511237632394
Li 8.81034987853292 12.771261658026402 14.993438744237723
Li 12.196734465601239 14.351336119502648 10.493406658194335
Li 13.670079391243718 11.614176968179647 14.99004437085279
Li 12.590512694232865 16.088477207174126 13.810886616821614
Li 13.673094360585717 16.476850040199597 10.69962102374538
Li 15.090227416257456 16.992290105825663 15.797505238962595
Li 13.630025582927182 10.807265507402445 12.100110151011352
Li 14.2670859588074 9.373173770761737 9.090648640999355
Li 11.641931158444407 13.560225411093088 15.358383055788128
Li 9.676074715653513 8.89305409251049 13.974344977551945
Li 15.451519031831605 13.817075292313266 10.643597859086668
Li 10.220009195107313 13.65719803173316 17.718912345068794
Li 11.847464083523608 6.6461838968610065 13.188223820549602
Li 16.228299382730004 10.783192060172658 11.004030075323278
Li 15.635017232355931 9.63588976102111 14.220000044944264
Li 10.995002678678759 11.305150611185256 13.449441133765324
Li 9.264132186812741 14.301767733057703 10.056927628738702
Li 14.325887158749964 6.941617507542384 15.117110035502684
Li 9.729224834723917 15.750847698528084 15.162302673301387
Li 8.719382823429129 11.643009234112531 8.87249385408767
Li 14.578095512799033 14.318216033957807 15.469585329424373
Li 11.441946237025034 7.5723518722415575 16.284481908612772
Li 11.238139005318507 13.115408102151141 8.08735168675241
Li 17.31244586714876 14.726118091768718 15.522855953713192
Li 16.095454894860904 12.59327938475892 13.489112355822513
Li 16.0297889290614 12.029084736283613 8.153076250984382
Li 10.211715738793583 11.358283026745234 6.241615290488179
Li 15.569409207821392 15.60714916114807 13.100904190321755
Li 11.050702326000676 16.040242712194612 8.350936430168357
Li 8.844709841418195 14.322455123737663 7.095396523910358
Li 14.330210278387396 7.996535314275134 11.945307427937456
Li 8.05689434465693 16.66117724687079 9.366387238662217
Li 9.359449228809893 8.49394626065604 8.500100032539237
Li 10.368492138214322 14.146493575954251 12.855308204964622
Li 12.096280652623534 7.10182678540155 9.576258473928783
Li 11.722070823966375 14.192800074124763 5.62778457217414
Li 10.418318963076242 16.626346550527668 11.451713232939321
Li 8.926180104726626 9.72012416392938 11.134980218698557
Li 11.499346160462043 10.183657255998256 8.735970387542219
Li 10.917476770472678 11.939513077529936 10.824553572487046
Li 13.838274897674975 14.495297460151606 7.978175976217197
Li 13.300839534764922 11.60958826768787 6.716520626508385
Li 9.50791166450155 6.8865172455895935 11.238101181925666
Li 13.64514493028779 12.027574324470176 9.590731013889432
Li 16.05406217355393 11.972319186955195 16.544283204459038
Li 8.261822922088436 12.335989197136643 12.114003320075769
Li 11.010585804279367 10.747047963540384 16.357652255130922
Li 15.441496642513389 14.82735823313 17.984969693226727
Li 7.823050741018268 15.350910252908212 12.528652714267041
Li 12.504606175137361 15.67962667842761 16.998491989159604
Li 13.90989975777922 9.48534269912399 16.91055795774196
Li 13.17249534599311 12.642721704093288 17.679746936019566
