55
Energy = -87.43009269 eV
Li 8.87653420668911 10.910416568794867 16.040374883269003
Li 10.706708675610857 8.13432159393894 11.781213275825568
Li 9.133027784970352 10.673189374264206 12.806907779608737
Li 10.890825975901656 8.978719818250685 14.830554353565708
Li 8.543115942227033 13.427370127617799 14.24641542890165
Li 13.426211540269458 8.160606834798498 16.49768034661022
Li 10.799554136071373 10.662882149710116 9.88147347570047
Li 13.4294461010955 8.012958319488215 13.347617669846683
Li 11.850749118310247 10.790746958624789 17.334218327987813
Li 10.968142029383202 11.996440147278989 14.673058829748207
Li 10.420122363391396 13.426273895738023 17.1357206696517
Li 11.943024140701448 10.498981132080349 12.43639386712223
Li 13.433673326150958 8.929657843345463 10.396197580947916
Li 8.87701553392279 15.942951189914757 16.043401309592173
Li 10.739407910158496 13.427039186478625 11.776994970950689
Li 13.425469506783728 10.49603355764436 14.978929228874355
Li 9.131603277624887 16.18149047060067 12.80870564633497
Li 10.968304815767889 14.857495585200603 14.673319554166602
Li 13.434878417738837 10.90622114459154 8.016725469656032
Li 16.15764206371251 8.138361965764261 11.789442884318689
Li 11.76518588569615 13.426749904910816 8.652993659629901
Li 15.96493161052247 8.981883359516866 14.837146051435358
Li 14.993589816681254 10.793957602082742 17.339684209988192
Li 13.415585059058376 13.429073751629165 18.789750747834614
Li 13.43125688545316 11.997970768005098 10.489669232078853
Li 14.91676847252251 10.500745040848306 12.439010694040846
Li 13.42297941258964 13.42778453230525 16.126501502107246
Li 10.798405799136033 16.189546782202957 9.881637167040198
Li 11.850621027734395 16.06325785349919 17.334270760317988
Li 13.426731056385757 13.427228695218917 13.241451000681966
Li 10.888439552190388 17.87596379805622 14.829495169578408
Li 11.941889157714842 16.355671488456775 12.436397240342915
Li 16.067212899654223 10.664653496845233 9.888275417874677
Li 15.884684701570874 11.998937983415392 14.680017926818673
Li 13.431228608665569 14.855944621134556 10.490635779778604
Li 10.70482780784606 18.719534681142527 11.779473766753414
Li 13.424466543891645 16.360744733107143 14.9788102665327
Li 15.101527334221899 13.42717709810567 8.657295676984932
Li 17.72553920880939 10.675608196173059 12.818802082644988
Li 16.4223558962767 13.429580396586717 17.143618604902795
Li 17.971960590152154 10.91475563849592 16.054440822579366
Li 16.12093780798169 13.427742377742224 11.782955711843536
Li 13.434484954821999 15.947124170095886 8.017925906773806
Li 14.99325160741428 16.064907922400295 17.339100548077727
Li 15.88383931399577 14.85793610851565 14.679351493774881
Li 13.422346134021376 18.695472984248322 16.497309781306814
Li 14.915649198691453 16.35636902307453 12.438868301231528
Li 16.06685451306936 16.190479523209873 9.888483519266185
Li 13.43233983050802 17.924669048163352 10.395629648036572
Li 15.96213072585553 17.876596096228944 14.83724527799617
Li 18.309748029586363 13.428730972374067 14.258637595827754
Li 17.971226783211677 15.943516663409117 16.052388968174093
Li 13.42689446721364 18.843372265259347 13.346730287013735
Li 16.156040570672413 18.718455378682446 11.788185269624577
Li 17.724861869700984 16.181949180732396 12.818714358426575
