54
Energy = -85.21202203 eV
Li 7.807264980540116 9.087803578555064 15.25137679126526
Li 8.266414760398964 9.510224567378545 12.181459336157582
Li 10.459380657250126 7.875642840779279 13.681323533758556
Li 7.949392022744645 11.990006386900502 14.211698740084818
Li 7.991259299951271 12.403757286879816 11.14423710942836
Li 10.194991232547773 8.521868899229917 16.99108844233429
Li 9.322038344766966 10.488051920940713 9.274366806335218
Li 8.877458243513404 11.555642692598845 17.176120950617264
Li 8.468908602374505 13.258883526079178 8.146220228858803
Li 10.209907631275804 10.382164581835939 14.93211436624325
Li 7.3062192103875745 14.764157841846107 12.988587477743708
Li 10.79575354662686 8.209368557577465 10.626641802448482
Li 10.641685194093478 10.879348367701745 12.213740443343372
Li 13.118467971903602 6.58643833780991 12.339576917471415
Li 12.192013246725095 10.615822565155351 9.624487461335017
Li 10.865247950452892 13.10371769510565 15.613527675403741
Li 8.912104856451235 15.241032583354324 10.479685370320272
Li 11.306863158380077 9.10777296469214 7.398410861924686
Li 12.735648837916088 8.820129445666794 15.298525663733894
Li 13.500787663954242 8.08368697987763 9.306746676972704
Li 10.598522982432415 12.971291616920052 10.01227966529795
Li 8.66292943587889 14.64272529221814 15.795114198528886
Li 11.348662656264683 12.263608373102052 7.305483085212881
Li 12.025314058593207 11.083444074089023 17.336477482170793
Li 9.918543330547411 16.367096777727323 13.243948124687462
Li 13.110423691838987 9.274820497790223 12.312409528975842
Li 9.99879059708062 13.589102963523889 12.970479652958357
Li 11.130449948757638 15.163489090011437 8.19202914816493
Li 15.249232567514731 8.062855255515542 14.198767475866523
Li 11.828649156452537 15.238590958686723 11.145594566074918
Li 10.712277426592246 17.636435533604008 10.348588016144802
Li 12.957252084618998 11.523582341326698 14.455602464427544
Li 10.765039690777192 13.94594113098101 18.189442220577444
Li 11.561269484379515 16.02462339841412 15.898148965408854
Li 12.723408236404701 14.639195046948274 13.825066965551164
Li 15.01991511810647 10.783041591282286 16.127001385878412
Li 15.734634644684727 8.098197696723016 11.237358969942312
Li 13.150201949875497 12.505732470721144 11.819900778506062
Li 14.00861750888739 14.130974677561547 6.641521158497435
Li 13.9119352222678 10.817588947608481 7.311190479983017
Li 14.958570173258636 10.616178238010663 10.16124154322735
Li 13.544183607269135 13.685385233817387 16.59951133172774
Li 15.564077849533788 10.700929823581335 13.0545528647362
Li 13.667579337073668 13.482174321269408 9.236145950510249
Li 12.729685019834346 17.44352221856709 12.806055274116172
Li 16.293695712664597 9.052303787907297 8.270431900438039
Li 13.490694092844226 16.618016962480823 9.287852831496513
Li 14.651001942593718 16.25391443127437 15.044800014839057
Li 14.720319922919392 15.409852773000791 11.840011765265244
Li 15.337736967997092 13.395787059994305 14.173347422069165
Li 16.125232702952324 13.010012006923231 11.202202681624055
Li 16.036058591210185 15.087327390861855 8.942164064414637
Li 17.692669315828475 10.481856643446173 10.69416007972342
Li 16.3568426747599 12.21267583943527 8.244505489565755
