55
Energy = -84.38109128 eV
Li 15.082202723422586 15.46064980388726 14.98185148366134
Li 10.276239042277025 10.978702378395722 14.009745921866347
Li 15.217502514277392 10.963914675572417 17.664474556718236
Li 10.121062462570686 15.396689715603495 16.71199179518607
Li 15.249923495303326 13.948858079422605 12.335997024037624
Li 15.06279889985263 13.95713235976027 17.629026208932416
Li 15.15903518339031 18.42747883756511 14.983903356027035
Li 15.170903775646547 16.857277507157534 12.343365521418402
Li 17.63069575442106 18.515234413155916 16.94922651765207
Li 15.091700180896028 12.453200483289113 14.98967107194353
Li 15.178553736457149 11.042504942899402 12.344908066118274
Li 12.611866842317964 15.392772407754133 18.24498292411918
Li 10.146991060513775 12.512533406905726 16.73464402554884
Li 17.700928347868818 15.433805579495864 11.545406091620057
Li 10.60790206915314 13.965528884947082 19.713429257338124
Li 15.170292061946821 9.489955691297773 14.992395161592935
Li 17.702479251260122 12.489609029774682 11.544873874491625
Li 17.569009305123583 12.380995611596406 16.936959369646182
Li 12.494135570524948 13.952668070456161 15.660010357368579
Li 10.330275618978765 15.51402195837659 11.224356397248505
Li 17.648800917713963 9.386272212453303 16.927149269146607
Li 12.670877447798029 16.908717914172026 15.713875019781618
Li 10.337794082457748 12.356374554360386 11.241006956945158
Li 15.185036236406091 16.94890652269488 17.654627990738888
Li 12.685494719418818 10.998773491676852 15.75380091486742
Li 12.83350613128191 13.931250873107986 10.445036168424526
Li 17.550834850134635 15.524960102418868 16.945199368805387
Li 17.510130666510772 13.958465103850047 14.200484780857169
Li 17.91193038431139 13.951253185708996 8.797345606922153
Li 10.436996451002905 13.927088458826569 8.658707729910498
Li 17.54747839799933 16.936761637460485 14.209177451905223
Li 12.692534487158701 16.948163458770047 10.430816647596087
Li 10.33696896436108 16.973980930386727 8.601151877955024
Li 17.556948034999724 10.976247561914155 14.200910106190193
Li 10.23166038259811 18.501048687925362 11.29049620633645
Li 10.345578909893238 10.884398229304495 8.624527367572307
Li 12.704883475312963 15.438902618785006 13.113925316290894
Li 12.701441975439748 10.921760488793566 10.447430533471309
Li 12.870442180799062 15.397634904448893 7.829831830156713
Li 12.71116846217442 18.39799884026716 13.121548553505257
Li 10.242473926089064 9.3709756764103 11.325673341847613
Li 12.873029041740706 12.457136853508478 7.8315988138773935
Li 12.711779825118981 12.437287576645016 13.132568233820225
Li 15.364484717665425 15.361798549212297 9.577289878232424
Li 15.438337746571575 13.935248854430299 6.9345033985763544
Li 12.722567276600754 9.489504688568823 13.151676232978838
Li 15.367428034037179 12.51991619467349 9.576051095303661
Li 17.11045219686392 13.937647314035193 19.57222058354635
Li 10.196846702814575 13.93969348638994 13.938316750114302
Li 12.648639753888988 12.550851655473235 18.28773361552994
Li 17.32436831212906 16.931655866245613 19.64669507424889
Li 10.265982546380581 16.899510081150083 13.97814937703147
Li 14.612207389399176 15.369533898164184 20.31985274035594
Li 17.392044143328317 10.94442393169643 19.632981848589026
Li 14.68142810618408 12.449396531546888 20.343495108821614
