52
Energy = -81.13766916 eV
Li 19.479550985463586 11.033540427748457 17.964413934641758
Li 18.282659809368724 12.36414050879805 15.626576058511048
Li 19.388233915299676 9.75203923973385 15.152842588981411
Li 16.88944391493763 12.760598382881282 18.30588546908299
Li 18.14673538275421 15.083844725551417 13.503414435833362
Li 18.79832460193644 12.004273858439984 12.715223052768733
Li 16.8105572353803 10.226513137151995 16.943014373683493
Li 16.75258002706096 13.992603586436552 10.945576928629755
Li 16.733201386357507 10.183595385494709 14.085237800570884
Li 16.65043572989247 14.86548085169394 16.10300941688347
Li 16.538919639436372 17.022915790338455 11.349088159081347
Li 15.838429219504068 15.712871197693286 8.486701736236128
Li 14.00052900978915 10.912513124206619 13.531157418952661
Li 16.254827635217595 12.943234062177304 13.619546307734282
Li 15.404455085669447 17.276051581423147 17.6096965463059
Li 14.126373657233788 9.323539102891962 15.757607776246795
Li 16.05284080943538 10.97505968143449 11.24998494789812
Li 13.90906143667692 13.0456324485738 11.660306797070955
Li 15.056404388914197 15.422454899200224 13.285968112026643
Li 14.471091499000842 14.440234533319357 18.379212585334933
Li 14.468750336742545 12.953769805170648 9.039761288772564
Li 14.192976633222314 18.115911999148132 9.300136536948287
Li 14.852701971991262 12.478491466375159 16.02944636890002
Li 14.077303405656885 15.726595119279109 10.634695532560757
Li 16.119617547666795 17.562693871893124 14.58347525527066
Li 14.746101009598222 8.312553241224448 12.811473546304802
Li 12.189747584981891 16.114616247998203 13.129628908814537
Li 12.525688691285906 15.389272968171634 8.38867170532625
Li 13.895458786064799 15.697489501010176 15.901683402682163
Li 12.338329956195258 16.73675146080315 18.104382967921534
Li 12.831813931943262 13.595726851409237 14.183887399025812
Li 13.791165017633794 11.319318152168714 18.226660368386376
Li 13.06313795274057 18.22945918198932 15.429988411903349
Li 11.437126292489685 14.458311767121753 11.08219986822437
Li 13.188322856222928 10.167881071654676 10.791689658193786
Li 13.850183476099092 18.217626888623624 12.428242579504632
Li 11.337177863666117 11.772125164081288 12.378799382656412
Li 9.95122199897843 13.938430116303376 13.787608732448408
Li 11.995979552048988 13.6862135111018 17.073921192071232
Li 11.75187924755874 9.086561116076057 13.380143939627489
Li 10.43503278410896 18.16534362911054 13.59897775124129
Li 11.483431916839926 12.23075631258884 9.383457351391872
Li 11.442910531709762 17.42783668780289 10.60330206064682
Li 10.948919877467805 15.947833111663625 15.636254174185195
Li 11.624152973745742 11.282716543501241 15.511547696692515
Li 8.17378379269414 16.114295860938338 14.936947632172183
Li 9.98303261996299 9.887283967155541 10.92435376545702
Li 9.033774771033473 15.901237336278472 12.040995842191654
Li 9.010724069052998 11.086344596275142 13.75613621988152
Li 9.015840061660315 13.345292186688464 16.258377600368927
Li 8.90405624797861 12.829657440914128 11.110453103997825
Li 7.201906573866407 13.65561699312826 13.564679973207221
