54
Energy = -84.7865436 eV
Li 14.087870748696767 10.197442220793008 16.539585588032278
Li 10.839348769516336 9.480506891204433 16.601448147900072
Li 12.239607750394029 9.572144563728108 14.166683120508768
Li 12.137029903960553 12.16010179984882 15.655140871820793
Li 14.891571371318294 8.672839711395431 13.963773262948036
Li 12.37395517847663 7.204992886015904 12.359188231909899
Li 15.071323279150771 13.094548079334087 16.29942672329659
Li 9.74909432049315 12.341814131274457 17.15263539850076
Li 16.97065707564091 10.939938841763109 14.80245674052562
Li 12.71914793073067 14.761200974559252 17.035002944484738
Li 10.496817579083773 9.568583843281605 11.86327242785448
Li 15.56774756741746 7.692135934366815 11.213746090158843
Li 14.405942748967355 11.593971378835969 13.976265387781824
Li 16.506283597718852 13.789180379997736 13.87468221731219
Li 7.796462692102534 10.168815723352495 16.024405017514493
Li 16.006369067087846 10.718978470314191 11.884278156176617
Li 10.320170662295947 14.615868190924989 15.267454053307322
Li 9.745573727311598 11.178332696687585 14.410132983549326
Li 12.072046489861268 11.975147946181325 12.255826893484723
Li 13.028887084524241 14.445028611334513 14.087759141672876
Li 15.100376931014607 16.069939770403778 15.028940912110931
Li 13.263599693533692 7.778026032128656 9.129089167890765
Li 10.314266090238643 7.380499258774886 9.931833486775673
Li 9.340789641560303 8.244072106921557 14.00097069364552
Li 17.78715180571171 12.880479659451533 11.494562691729314
Li 15.661713736854997 10.047721368370091 9.075876907687155
Li 12.253593085458084 17.079671685162502 15.052246626337434
Li 7.670729013912078 13.176854126968005 14.848757860036303
Li 7.792475299764246 8.604218761419602 11.171353387717108
Li 13.513864858436245 9.557543123173 11.372460835378382
Li 16.444266570651987 15.711885974433939 11.43601330226526
Li 7.23869796354861 10.755582012778381 13.06312824838295
Li 10.383173234415345 16.31985390863912 12.753666316928678
Li 11.999881558860302 14.682985060804452 11.03799047370394
Li 11.367551340403194 9.923627443777566 9.19250316584276
Li 13.647674025488994 16.6533526166642 12.30151826566735
Li 10.904405599690264 8.302074580414617 6.990771141418141
Li 13.61237062748383 11.919316178831044 9.72806246463428
Li 9.773840686111452 13.474183726553736 12.705346507358655
Li 8.812700980833352 11.526618165682233 10.790805261171284
Li 16.083199426194046 13.22064862632498 9.037147354916788
Li 14.75889751191273 13.58973861476515 11.680137342568372
Li 8.618224094190575 9.80690052906651 8.50016854971015
Li 6.182316874525814 11.085821256012068 10.063206850638936
Li 11.53904427929592 17.221805381064197 10.005074369116443
Li 13.326132180316005 10.204790645489473 7.2265427905128465
Li 7.071969643033499 13.615324153613866 11.712645351587827
Li 13.97293370829795 15.384635596155947 9.279026838498668
Li 10.911156159492554 12.701403591023547 9.409600544292223
Li 9.256872910085603 15.068518623890029 10.22783925473041
Li 10.610967750880612 11.63749372773499 6.869767091427162
Li 13.395572987186524 13.159424806255824 7.298245935927522
Li 8.17324512579237 12.962885923608273 8.373046928798928
Li 11.002854628784107 14.933857412857607 7.828937427477412
