50
Energy = -77.93017967 eV
Li 10.192516576476153 14.885922749141654 9.012777978291842
Li 9.215172562357948 16.5166244299263 11.648107246201036
Li 9.610812668197093 11.832408925660589 8.841994129136761
Li 11.462658144638333 17.78007475969268 9.697021695434087
Li 9.519462882365158 13.361144549493174 11.720056535770322
Li 12.282664774698054 12.805789384465694 7.50709603149028
Li 13.135457776188309 15.584618264259904 8.203199680297152
Li 9.649443980650176 8.617856418894657 9.170752324499308
Li 10.68709815372756 10.200512404887718 6.440749518620812
Li 12.004204588580958 12.794849329741947 10.374784724870182
Li 10.31396910162068 10.617474309149204 11.421919631762988
Li 12.034725903871928 17.601121711335907 12.99914180920402
Li 10.82597331299033 15.170293343970425 13.331632551628235
Li 12.120547180680886 15.514260056657617 10.930323583930704
Li 7.914213962341684 14.479651988740649 13.938543402660374
Li 15.452683560935595 13.08520525905617 7.48858811707607
Li 11.961800741085717 10.09497948294361 8.870431722906712
Li 12.295568399252229 7.7959430364922495 7.456552958602176
Li 14.462391003899716 17.13245772225029 10.648677874267353
Li 14.31535255115709 11.51087384801254 9.419747375593099
Li 14.761527291160176 14.20042608480587 10.167520288560477
Li 12.423305120123405 12.870445842253458 13.177698822417103
Li 9.679628064597955 16.128616598609746 15.725563068684346
Li 12.326633853585076 7.820070206021273 10.655091224834464
Li 13.894662616459161 10.396033835353302 6.686722521788428
Li 10.010067592375918 8.228427995658256 12.699255745694467
Li 14.097719821311339 15.197176118205556 12.888786746195768
Li 13.057816570576351 10.268169420281515 11.69285011822232
Li 12.668363791685705 15.28757035490953 15.460034597685107
Li 15.084411258936955 12.313921093869359 12.237561460502667
Li 8.589073171668565 11.045489061636925 14.207622619622034
Li 8.070529992202967 13.390091109423908 16.875787556151728
Li 12.851511606119525 12.433694913422135 16.1733636666736
Li 16.982320149200806 11.688879584843985 10.26847930532492
Li 10.188333207900026 13.24106495144799 15.151097994515364
Li 14.776208185464666 8.840228670070342 9.135512504872425
Li 11.370510544186535 10.486363253191044 14.297530837682487
Li 16.975930248533405 14.399430185796016 12.210812876456382
Li 15.617476559675959 9.325434882040051 12.047579570613266
Li 10.118063209047762 8.428552836746196 15.697492561928978
Li 12.86313763615613 8.11733878106051 13.79160320693556
Li 14.209452860546524 14.208447726296273 17.884357475543823
Li 17.297282485925003 11.493556475623771 13.759250950201132
Li 15.338124529681739 13.520986427657839 14.96374889585143
Li 10.964611159840135 14.091704628143189 17.78363372349261
Li 10.211468263638903 11.137953771486327 17.091889409185825
Li 14.409822203793961 10.653103731836858 14.42093606522976
Li 15.359728457455084 11.364209554675822 17.115042491531398
Li 12.69533782345412 11.699846923010941 18.86987432063009
Li 12.776069490662394 9.495618957194734 16.739926036835385
