50
Energy = -78.50741876 eV
Li 11.266048454247052 7.790178841816752 10.478784330291646
Li 8.41707054116438 8.730035229736808 9.2256404220651
Li 13.303630428437735 9.911788555258774 9.733299568114127
Li 13.61669263118698 11.173413774545491 6.828544802293788
Li 8.928431666028763 11.755017796053014 8.343513656116151
Li 11.598481526505632 6.999476528721384 13.672071274265015
Li 8.960372944719186 8.530560251271252 12.418433436819365
Li 10.212792931800875 14.641908595869547 8.516975609769943
Li 12.638778241359189 11.860912847954232 11.541153240102942
Li 10.880751404515967 12.455681704404743 6.08771173204915
Li 12.517942124795246 14.559412770200035 10.299858885948336
Li 19.038285156284967 14.7602017590675 13.764141894692083
Li 14.168857699462363 8.451718107777019 12.353523554975736
Li 10.195309402501165 10.376681833130148 10.506333585648036
Li 16.62012802177746 9.43646826855848 14.16015176529896
Li 15.883490668308264 10.918914172348684 11.47481859330886
Li 13.581641474727602 8.975151782523495 15.294933012297225
Li 11.705952475888258 9.584876391780247 12.870505611322544
Li 9.223649773484073 11.33248181367927 13.37519916195396
Li 14.386697636463092 11.078784726316007 13.770712958046117
Li 11.003537975064365 9.615183852132565 7.673882549689508
Li 15.689788770363243 11.483546874016415 16.443935115380434
Li 12.641151986419398 11.57319099905932 16.849840373780943
Li 14.703825694485396 12.673693742832999 9.32533366081483
Li 9.644680066389935 12.375237528084742 16.393171206719806
Li 10.506702844357488 9.464202511750788 15.420239448103912
Li 11.176868105126776 13.662969131586731 18.786925653972286
Li 14.715161770932864 13.62949353401089 12.06972264359527
Li 14.32529139489847 13.532804787435 15.051729946774214
Li 14.176948445568792 14.106812866176435 17.799704951499482
Li 7.502275564047146 11.132165785646663 10.987334632792663
Li 11.718409880523181 12.067241718859446 14.30882499284818
Li 16.820098413125695 14.57929792334026 16.13241751079019
Li 11.70533362324002 14.397800526826469 16.177128586873497
Li 16.975223138042807 12.636807114308631 13.880449696620035
Li 11.790646590309985 12.18226957297814 8.6775668391354
Li 12.315533352317885 14.587095348761677 13.275027389574376
Li 9.531513259946037 14.336395336399402 13.988681313946994
Li 9.326828836635928 15.50795687789231 16.98400070126549
Li 17.451629858600334 13.764149508155931 11.159884768389235
Li 10.084628918227743 13.149217199062905 11.193213796874959
Li 16.23619701008862 15.54588920004663 13.280444271951707
Li 12.140159755593492 16.492404435357326 17.851578387487532
Li 14.048410041186065 16.235056136279034 15.369315487199911
Li 12.320546300239183 16.990200803839297 9.15226711489698
Li 10.468196285371707 16.173587444310403 11.535361045580494
Li 11.155225513444352 16.86091981807628 14.665620301760473
Li 13.126489550859349 14.392514713365227 7.403646554427493
Li 13.46109896127842 16.81662401675458 12.21835186934376
Li 15.164522270634496 15.627329908642805 9.930183658953332
