51
Energy = -79.85640489 eV
Li 11.4470599250095 13.474302399986561 19.6284949556105
Li 12.305650056916507 13.12755006417944 17.088116075360713
Li 11.033022967769153 15.718406141959447 17.267696306085277
Li 14.006988163786946 14.955120306334344 18.437157617213565
Li 9.834006921835691 17.52418051560207 12.070996247921856
Li 13.249445767177441 15.667124083905078 15.575888558724102
Li 11.444070329106255 17.996472180743087 14.880251657908746
Li 15.965264816851578 16.00804262334839 16.04252613299569
Li 11.417004078271713 10.654794241368096 18.208498359870802
Li 14.158715406897882 11.700683332609525 18.7323660826008
Li 13.572917110995888 17.83072360085072 17.225147683160362
Li 9.427290623131505 12.868710981334527 16.952837483612065
Li 9.115112329719167 15.59652880376195 14.770970435409561
Li 13.33653926560879 11.004784453732942 15.76834562654236
Li 15.157416611975965 13.301322208357153 16.297869998577923
Li 11.6557457335225 15.795130173070712 13.27412345963898
Li 10.976238373949807 13.502343471847306 14.709305539577738
Li 18.125798391912976 13.553402409667592 16.14075332493307
Li 16.18396922514025 10.698729860705553 16.528149259874876
Li 13.614523226420154 13.340026737382251 14.049690509756662
Li 10.704096694944502 10.272728912079714 15.33790088547354
Li 14.535169008492693 18.032054508345674 14.179910284667748
Li 13.648682995331253 8.683432998106628 16.946659455673196
Li 8.91725181881691 12.033247916941075 13.578199121643618
Li 17.490390205823058 16.365393002159852 13.624031813535304
Li 11.843238708597836 11.428430521256958 12.987679516448987
Li 15.85717328813648 17.637100232557703 11.145463566735108
Li 19.274973944850068 13.785548790963635 13.187728203139788
Li 12.267654859910339 13.814153066735251 11.5363147739897
Li 17.980969941330276 10.9702451039827 14.12958312068247
Li 12.85211461592447 17.58929023396668 11.621919175318906
Li 9.49945455276736 14.491099461793356 11.958119032029048
Li 15.943784148629037 8.450233159960998 14.600080097366847
Li 16.600185023280925 13.547784017660357 13.817696202574538
Li 15.131414926902904 10.97599732018573 13.632484555395738
Li 10.27718238714652 9.285329972453484 12.265470478000912
Li 13.097803877709815 8.8612770671087 13.636298920093974
Li 14.715880010408455 15.554351315884771 12.876480803940979
Li 14.785368213651896 12.614649695849609 11.396159145747522
Li 14.2961658932191 15.341525838913025 9.953332954490381
Li 11.356939590531251 15.740543860964255 9.626023382182666
Li 13.74297034286468 17.80821627963371 8.731356979921477
Li 13.041035201185062 10.329691584334178 10.817861962982212
Li 17.556814239789745 11.926138201839587 11.335743957864935
Li 10.261942875242681 11.883859847925907 10.634088623264569
Li 15.898944362579618 9.382779197474482 11.578036356512124
Li 17.05032341716401 14.798199322535815 11.057198143808927
Li 16.397089445076492 16.185690902099083 8.3522312374286
Li 15.78382007977695 13.085209292430875 8.732381643859501
Li 12.681547720262818 12.838403901232683 8.981577141728962
Li 13.68243471933873 15.161265637946236 7.279557618161079
