50
Energy = -78.1859466 eV
Li 9.62615599544801 10.90925642451347 8.95698097359844
Li 8.972502852090997 13.449301532713681 10.20210540946618
Li 7.778070504667543 15.573122132663032 12.046807344003657
Li 10.985472362446759 8.111431400179987 8.832683065598744
Li 8.417967713411421 9.326063021024256 11.03145747409146
Li 11.384976458302994 10.30026274301168 6.5953052323879
Li 10.994116839409768 13.37184237939804 7.821187228949186
Li 10.820202913680523 15.940477558238195 10.59040179122879
Li 7.745493884705008 12.195479719320298 12.693885188835774
Li 10.146120135239526 14.32084460208933 12.762663137116382
Li 13.720040157207677 12.107317914965106 7.4009646188487
Li 13.453874243328041 15.196052833165599 8.68312821398301
Li 13.962561637908452 8.827590283905705 7.557448155559164
Li 10.393169621806287 11.319302932267313 11.889131634653262
Li 11.319356590343226 8.723690944048085 11.813511391376663
Li 9.642847190861556 16.920801670148503 14.14696506921608
Li 11.90697291769781 13.171383558747058 10.387412447624241
Li 13.983324661717111 8.154405037659844 10.531709128705888
Li 9.052799564743768 9.524528503077432 13.923260038328266
Li 7.4247571730597315 11.366062105671539 15.81785972841944
Li 14.723890687788266 12.976472358679045 9.9500019291965
Li 13.666282066754214 14.945671121166377 11.666200301057357
Li 16.194763398163026 13.767424703051361 7.772784280689274
Li 11.1639538762772 14.69179934748194 15.544751206085149
Li 12.307072177421555 10.520136169001088 9.307280545258333
Li 8.151622801039757 14.393230821000992 14.981965056459648
Li 16.351569560210063 15.284386744740585 10.509811682467165
Li 16.5370767523049 10.74061771068202 7.212065228204667
Li 15.211137273556984 10.433499211817326 9.496334275834514
Li 15.392320257807949 16.422276215655838 13.441154784690296
Li 11.997511882994381 10.110083873842997 14.303800741392823
Li 13.58596463829065 10.96046360895339 11.883873765580129
Li 11.307406084291694 7.462316152324842 14.68833973657099
Li 17.464907651491824 12.0399233587398 10.008688339503694
Li 12.491305822803788 12.95633435415407 13.481055689696344
Li 10.227006387258285 9.89493002111116 16.66801697776544
Li 9.915813661948254 12.11832540622376 14.749593614575591
Li 9.633034774804498 13.009927074007274 17.446268370869024
Li 12.328939668898185 16.32749685732138 13.445764928469956
Li 9.748620838381752 16.201716398436865 17.231877943245326
Li 15.71226913845519 13.171542535935894 12.66291402907129
Li 16.977590172296843 8.439232355995028 9.376693990520884
Li 13.290631450528378 9.031151490673889 16.538262210206106
Li 14.11589097006562 14.443714924104494 15.27416857270243
Li 14.739718478155801 11.214773658796512 14.732537888335454
Li 16.283055451083477 10.017555001964059 12.10508476079973
Li 12.29644590067656 14.619590390447359 18.07261918021369
Li 12.608615536251591 17.091031572273018 16.210898727653873
Li 12.409017022455885 12.099592438390772 16.418052201605583
Li 14.089127407462662 8.406418359504688 13.602843151143562
