5
Energy = -5.01694839 eV
Li 12.733328559417279 12.550295940745952 11.818969763408333
Li 12.808059026984127 11.529657185040287 9.044026049243335
Li 11.16824524151951 10.200332323230356 11.144070703355977
Li 10.900687344161918 11.582791638097547 13.842102449578054
Li 12.753924572265856 13.804972775693402 14.515375572088155
