52
Energy = -81.30463324 eV
Li 15.382108395229872 16.789319830219757 10.444022629864342
Li 12.754476836761855 18.708896774735177 10.476470165141015
Li 13.341631012952469 17.18263947894186 7.793631814592968
Li 16.6729546833374 13.40234521709752 9.305125956383597
Li 15.208357494082161 14.400747978667116 11.771902431634004
Li 13.072458888502611 16.811339708680627 12.876883236171562
Li 14.169802444803924 14.576443676993136 8.791281734585773
Li 15.97401746746229 16.443614620901457 13.715817692958176
Li 10.31356622592272 17.06189542685678 8.927193504521282
Li 10.290120704361168 17.53080685123475 11.98184143915625
Li 16.495128449713224 13.42280086598289 14.101882774007313
Li 12.508483140810448 13.826515477941513 12.103936574322216
Li 8.780632818590968 14.206078681574514 8.720853707605174
Li 10.013457845642753 14.867070673689376 11.160371200106903
Li 10.705072793931192 15.322740805867161 14.301667999350416
Li 14.63580222802636 9.861381765029137 11.779774617482373
Li 13.523778506227561 12.124114356988915 7.408608406356009
Li 15.759965462441677 10.32782717509994 9.02762401456751
Li 13.729455506582484 11.853788312043244 13.740597135364638
Li 7.914608313637143 13.97821419885262 12.968699709546962
Li 9.22722447839717 11.985479304136765 10.75962804077672
Li 8.688590068877616 9.097683688647516 15.98329343927231
Li 11.47398291831705 14.625085712684626 7.47826403009779
Li 10.01963953992634 14.397897879062466 17.314572857152907
Li 10.506993721460285 11.080106218620488 17.684259859899086
Li 10.24797328076046 11.45106010367467 7.831564102835822
Li 12.811529762032784 15.80036765453867 16.69443847099442
Li 8.700015370873754 12.273401184281598 15.597075307309549
Li 13.834183654226008 14.59838473299622 14.410760946920933
Li 8.530350736781177 10.432674266569897 13.182812773152795
Li 12.452680348259573 16.01815833353446 10.251365555721877
Li 12.544485352559656 13.188449314826556 18.540574642515125
Li 9.899070408463542 9.046238920298867 10.422685065446046
Li 11.93074315015688 13.072748101977467 15.861802341285552
Li 11.586008808188266 12.947033695465004 9.640717224703039
Li 10.382475784553202 12.730363704057483 13.325334551502538
Li 10.953389990005986 10.442272192842443 14.939535628506844
Li 11.683759502308463 10.58532507599289 11.970123832414263
Li 14.912974081987374 13.152373919632085 16.622150239439797
Li 10.45366555078547 8.05638126712542 13.482088596501436
Li 14.174522808701282 12.183144590558225 10.391804855057481
Li 13.300223066669833 8.879385070384663 14.17388340026738
Li 12.715430033389092 7.708955982138605 11.4965073241367
Li 17.89704969447789 14.909421831972594 11.709648446860028
Li 12.566583637302875 9.995440612843401 9.311538346434993
Li 13.446049488487825 10.597343474519533 16.669575353680926
Li 15.935644785592482 10.332457545866314 14.704941548716356
Li 11.618997480150275 8.122632877133032 16.453899664842528
Li 15.57159647974657 7.494276399487212 13.225400537066294
Li 16.81265257220007 11.728365547452052 11.771987813812817
Li 12.945161026884858 6.192723133168728 14.267553548171684
Li 14.785909239783447 7.812536884464314 16.24931540767616
