50
Energy = -77.85758076 eV
Li 17.73653786743729 14.543450925801187 13.026308352733768
Li 16.368869699092787 12.545767749990329 11.076423022232794
Li 17.899684114201744 11.445174049708475 13.586832005450521
Li 14.910328518458087 15.305846252482171 11.993479433963529
Li 14.875485357512254 12.019172488406383 7.596926402426021
Li 17.350527389387466 13.462006278457876 15.922084740200612
Li 13.63263026522578 9.154887055460561 7.455016251756282
Li 14.824063961909145 10.23240457163103 10.017466396612864
Li 14.181654527551302 13.930264677750522 9.660803626051843
Li 15.438952468694616 15.800781780640927 14.92544347142122
Li 15.18532885667564 10.31348474526676 12.914557975744325
Li 15.592058463410078 13.01348238865468 13.869360034980069
Li 13.312552393175089 12.463113154107566 11.844275733429566
Li 12.088572885709333 11.544629875858009 6.367347814387602
Li 14.321911877338513 7.69243738321597 11.520389447191835
Li 12.847391872043513 17.0327701810523 13.124747183853582
Li 15.638650931514391 10.79647200854713 15.822641864661223
Li 11.891645868551283 13.975032118644812 8.141839599630133
Li 12.478196935057952 11.324692445474284 9.116190485538581
Li 11.992835514399301 8.245130287610413 9.690981203857447
Li 10.28357104931974 9.781380797078127 8.046110276950804
Li 12.430062611306404 9.813712739973925 11.955554032080693
Li 14.257277405702538 13.411868728583658 16.610717905154395
Li 12.71952988953041 16.725982399115843 9.868624658756001
Li 13.00230389547229 14.328018579950385 14.076942207485319
Li 9.326278671236674 12.634594846654759 7.353985823687771
Li 11.274160912920781 13.3779541480763 16.201542527989844
Li 11.378259319051812 7.054184424187378 12.224068747700766
Li 11.603340060718224 14.757446000085448 11.355685001855234
Li 13.570926320516191 8.52194391661091 14.63163599976187
Li 9.67090032941665 15.451520711008362 9.186371791107035
Li 12.61736594414816 16.176988428797486 16.13764315101262
Li 10.169447234527624 17.275418653610416 11.638816367242468
Li 12.942243908979526 11.403254149593174 14.673745268849123
Li 9.95067479738887 12.414010495842918 10.086268839443106
Li 9.503586873707118 9.563146320911198 11.380611861884042
Li 8.914243871516593 7.3907585065768435 9.835390244519061
Li 12.835797509364973 10.552235889215346 17.221266928212245
Li 7.689984207151818 10.483484780992422 9.092087537459488
Li 10.434950788045525 12.19854749237278 13.17759909074202
Li 7.2610522899814285 13.513472543562509 9.325182040201653
Li 10.783799365540915 9.223319245256118 14.18152618054419
Li 8.530742064086443 7.362921938367439 13.024920932170703
Li 8.695193025017304 14.549595244513489 11.889698504987631
Li 10.408349517872407 15.417618825889404 14.113696797170842
Li 6.628354671698463 8.941793180439802 11.4217520512793
Li 9.916969819628404 10.895287474839188 16.231891590631683
Li 7.504853362840576 11.875873251156452 11.800442989161127
Li 8.021902221621321 10.158359031064634 13.990958518317017
Li 8.310915026701942 13.16059152968864 14.740062753607685
