6
Energy = -6.62384388 eV
Li 13.644077754007428 13.36024570099139 13.146268948669885
Li 11.290852872145246 14.144190841044614 11.533092264008545
Li 12.752839218955051 11.809168138921684 10.931788866072
Li 13.821788790652908 10.08036270307736 13.222893279794928
Li 11.210030087915474 11.326535637550158 12.926169431992301
Li 9.628139686278475 11.795990378589813 10.457585973593636
