6
Energy = -4.99006767 eV
Li 10.216643484009795 7.3690395851335255 11.603840799955453
Li 10.799868408096003 10.169106507679365 10.844243010086839
Li 11.345179349722201 14.16422752797163 12.942898067114536
Li 12.438554997211215 11.474356361500936 12.7469021294233
Li 11.098835246919286 12.894433568436174 10.35998449160746
Li 13.774322075272517 13.568727143330888 11.221131485551112
