6
Energy = -6.71441024 eV
Li 7.893951475351808 10.871813264598341 7.464672797999654
Li 10.349024138652842 9.417568434034242 8.265809001509846
Li 7.799386664311407 8.655260482090416 9.437202876040477
Li 10.24084905527811 8.469894029049215 10.982683778367667
Li 9.015382400782993 11.165183178798122 10.158351914368417
Li 9.805723643747044 6.549714650992647 8.804497460171081
