6
Energy = -6.71463539 eV
Li 10.865952429310727 10.961452387148213 10.028653997099239
Li 10.854722417375452 8.698202836956057 8.260988116001165
Li 10.594511082574577 8.369640574733005 11.300327064307007
Li 9.38163881369034 11.10571543351577 7.459215793806713
Li 8.436014171589273 9.389699553142217 9.699130599789394
Li 9.035785498746788 10.624234859780687 12.338070647758249
