6
Energy = -6.71505018 eV
Li 10.475889342579922 8.520280261438742 6.691057907152179
Li 10.189366401623849 9.487804565366766 9.495472870788317
Li 9.42857813115059 6.785481856702006 8.808702144849383
Li 7.808129616697681 11.252797801152118 9.83119563292083
Li 7.800449940077478 8.983305212234306 7.918144985587374
Li 7.802699078181818 8.475122517002578 10.760241872721991
