7
Energy = -7.73989665 eV
Li 9.11029965704445 13.188498040765692 8.007693172164881
Li 9.646457715890183 9.719425936996839 11.272279383055142
Li 11.03794012452341 11.283911901986347 9.144464721476062
Li 8.360133459953508 10.370692977613524 8.721527122340387
Li 10.652287354972442 6.924732885366587 11.369940276852551
Li 10.515193564595142 8.336398586990107 8.80935617490081
Li 8.104523848671008 7.603175395930907 10.101574874860718
