7
Energy = -8.4814355 eV
Li 11.608601786447364 13.768973279502406 13.911439726281685
Li 13.63520662635563 13.998998747985217 11.671548279012399
Li 11.279307510022592 9.733125440384567 11.124152217042585
Li 12.9827276380156 11.393703268933688 12.84537297490277
Li 11.052085926970232 12.658671385357314 11.26243394465617
Li 13.41710466026586 11.53157298694589 9.9388711684302
Li 10.172497133638915 11.104695409690633 13.605002278083802
