7
Energy = -7.9724806 eV
Li 6.517386906368795 8.79382328328584 8.714978414385932
Li 8.208145985873534 7.362382754187827 10.928168870334448
Li 9.225502959816748 8.313075110514895 8.564483253573002
Li 10.193376099652088 10.298448658093143 6.924459902442984
Li 8.349611179078334 11.013001277503625 9.030096376793688
Li 11.879822092523158 8.80862544319693 9.099911948434618
Li 9.908569886904065 9.693058583434599 11.020316344252317
