7
Energy = -8.48099876 eV
Li 11.469499097935701 13.26128664538962 10.060817977250952
Li 12.870362818003407 11.877679169086697 12.36627798506001
Li 10.007615439986402 11.461274165234766 11.831173205689655
Li 9.374431264415264 11.363692823634462 8.972588759223648
Li 11.569386968858785 9.153028927727922 12.748034538779455
Li 9.38895587711466 8.851245304431938 10.653244563157998
Li 11.866950971387574 10.33797120866784 10.07874957700458
