7
Energy = -7.35093627 eV
Li 10.156462285828566 7.848079043113183 10.848119779337583
Li 8.6945013 10.384285325421951 10.847413534777795
Li 7.232540314171437 7.848079043113183 10.848119779337583
Li 7.232540314171437 9.54092355688682 6.540882820662416
Li 8.6945013 8.6945013 8.6945013
Li 10.156462285828566 9.54092355688682 6.540882820662416
Li 8.6945013 7.004717274578049 6.541589065222208
