7
Energy = -6.81545533 eV
Li 11.337326720366487 11.19338232947517 7.771947897420647
Li 8.876270028870898 10.52645272263063 9.276929190413876
Li 10.330458569953059 8.316444069968664 8.271451612429566
Li 8.427425215139346 7.935776981631825 10.521320086465325
Li 8.335897883451562 6.07976037984099 8.166837200422849
Li 8.69655203797568 10.58417747828889 12.172220787550794
Li 10.7913064530629 12.159242946983486 10.614530134116874
