7
Energy = -8.4796331 eV
Li 9.296825487948473 10.382528274866743 10.01752734026045
Li 10.249628451876362 7.853027798704856 11.159982919793062
Li 7.028313729669786 10.077625569479157 8.188477020314933
Li 9.185798903353001 8.088254667947995 8.438218071527507
Li 9.820756454824693 10.62168944448786 7.137755100456421
Li 7.290342382489818 8.317192268612756 10.652887797956186
Li 11.800292711574206 9.283375896024376 8.98339620951161
