8
Energy = -9.24534187 eV
Li 11.205639380865339 8.299999492265428 7.318680362880337
Li 12.066254349627274 9.947676760390491 9.299278219039474
Li 8.382932446300257 7.5654847803080845 7.238579726103477
Li 9.45006381948387 8.17511331290711 9.998241063253273
Li 10.037779247161469 10.881365627688355 11.20414404772357
Li 6.357883722642888 8.483178825212729 9.154188116071555
Li 8.974388390145409 10.273374983710191 8.440739877454313
Li 7.210447168948214 10.16227873530633 11.111778215893386
