8
Energy = -9.45564244 eV
Li 11.467580355996198 10.315950148207403 8.110918308647667
Li 12.801762399425657 8.149816971746558 9.492923253066639
Li 10.522967121576764 9.816427002845888 10.812141237712948
Li 9.759068945767448 7.9912097413077054 8.65703982974703
Li 8.560611123699815 10.656460319297663 8.783436761885914
Li 8.221168995030503 11.660338762905791 11.49622484829217
Li 7.720878591182239 8.833737038469309 10.676893538610209
Li 6.846205690676225 8.476303238574395 7.870665445392674
