8
Energy = -9.26588316 eV
Li 8.116116676864573 10.150960671267965 8.990896174849214
Li 10.25266616918905 12.008780704196637 9.394725107287508
Li 8.953687451812636 11.390824637232654 6.439379868522512
Li 9.283783860477671 10.403838324675247 11.777442109721314
Li 11.810460240703174 9.842697017979608 10.919908473426371
Li 9.69967802647832 7.946783801395257 10.462470926965217
Li 10.69330686198789 9.590537864908532 8.119097734075151
Li 10.572993636852864 8.048269902710139 13.278772529519177
