8
Energy = -9.87632867 eV
Li 7.722136792660157 7.703762829319218 6.862920101159322
Li 10.138377554285524 9.263038242443518 6.34202956353665
Li 9.234403711473625 9.92216985165903 9.040642476891092
Li 7.456133451781558 5.891616286984047 9.07760955367388
Li 10.090065010541327 7.203794947537828 8.47293139942737
Li 7.190427637850724 10.571681862390706 7.054374057930929
Li 8.860540729136362 7.961497162392158 11.1071172526257
Li 6.58331910696218 8.757842843816894 9.317779594755052
