8
Energy = -7.89905018 eV
Li 8.584944417591613 10.15230560353218 7.947203282882692
Li 10.97635165064308 11.545828522896763 8.661764182872552
Li 10.952541675127577 8.307783231439323 7.817522924885151
Li 8.111749750491663 7.299780911692955 7.9748330298193855
Li 8.392430376836058 11.745351224059583 10.292386179888762
Li 7.171952589589313 8.755152520734299 10.345474183215376
Li 9.893951765847508 9.2591120173843 10.169907623269749
Li 9.366800568096798 6.385408762483943 10.241631387389683
