9
Energy = -11.17050189 eV
Li 9.492878198051677 10.323357606422839 8.61559607778671
Li 10.188414744815667 7.546245313709751 8.8958362388425
Li 7.399517984934527 8.384038805500929 8.991457321396483
Li 7.4619604764933705 9.642961678823523 6.6060742705450695
Li 8.295993842552523 6.612348015937588 6.885823165852186
Li 8.069293017730852 5.819107115197258 9.878392356295002
Li 6.8352583999111145 11.074270740254795 9.773031724424113
Li 8.908636792239003 9.131678498771292 11.191606078919818
Li 10.45602357512349 8.573969220073268 6.27015976593812
