9
Energy = -10.005817 eV
Li 10.448270733709844 9.820724857379219 6.578156032914143
Li 11.933374391856582 11.113883497009413 8.463034204847705
Li 10.158856852954015 8.961741180812133 9.373782568293345
Li 7.956083306665566 9.169702149004266 7.369789167271146
Li 7.866078530886929 10.577888088821709 9.903625972625473
Li 12.192231453937511 10.242852104286893 11.021380178127409
Li 7.2998000492693675 7.6882567245042 9.528345445074233
Li 9.70460296792057 10.604128986773645 12.01745838188249
Li 8.643109309611425 8.117578599554008 11.833477161272878
