9
Energy = -11.33358247 eV
Li 6.394992497731825 8.68693568645346 8.611995311348974
Li 8.891941973201412 8.89002071116007 8.888857140028776
Li 8.21824689638758 8.376281430052087 11.347114862012626
Li 8.332236969387766 10.717288293036168 6.905220419415792
Li 9.848902374654081 7.805274561946397 6.8194494458433415
Li 10.87959879165701 10.533381844440981 8.452272354017882
Li 10.926746121832803 7.6965020626552345 9.960738339635132
Li 8.223803764029247 11.219272865405545 9.851153461056795
Li 8.406331993723684 6.197843575271314 9.28600028403517
