9
Energy = -8.52167484 eV
Li 11.787010577651603 11.41758015875736 9.339589050569145
Li 9.665883323903193 12.848537522614508 10.386769983415276
Li 10.025104281476805 7.293156376399741 10.80247097630174
Li 11.82171166490623 14.41128283408339 9.190651812944884
Li 8.558934812236162 10.213500331039858 10.019666459594593
Li 10.491711173859006 9.028471294015029 8.499111229356725
Li 10.499677415810838 10.598571405764476 12.085785956610797
Li 12.276629213357003 9.001277783216258 10.74098417072535
Li 8.36051446642919 8.668955105146265 12.45727180744407
