9
Energy = -10.81090856 eV
Li 11.770256878294935 7.148663470498586 9.464656081296098
Li 9.964571425616525 9.226923603548496 7.993595137227174
Li 11.655766637267151 9.874942768963075 10.496710711670346
Li 9.365575058630132 6.210898609967023 8.102146236848974
Li 9.062088257666229 11.403074005101926 9.908152761310465
Li 7.083640276992088 8.272227278007016 7.9497621348013725
Li 9.021943373599443 8.34538822479939 10.285035022103273
Li 7.4116843794454965 11.106270674992107 7.5462399790952395
Li 6.443496120721054 10.190521111142061 10.032608965968862
