9
Energy = -11.07294251 eV
Li 10.174272867233588 9.099685361193393 11.361958670484281
Li 11.876498876582003 10.93616929333819 9.953494585519975
Li 12.67559860788749 7.726455690174655 10.352722342049137
Li 8.844587519637845 11.575034979003489 10.6067588901991
Li 6.428142689910507 11.968106297482255 8.671358537988851
Li 9.597677741920908 6.620139554269947 10.106492232236238
Li 7.781537075678614 9.19688789790561 9.509842423994465
Li 10.586036439670773 8.813583814366304 8.697438152656376
Li 9.205792530000839 11.233745285785137 7.910521293679412
