9
Energy = -10.06190395 eV
Li 12.720128435814317 10.682533086210254 10.12955949266372
Li 11.536690581369673 8.229127959614022 9.278183425278662
Li 10.15910219287416 9.85003835347046 11.375464185192817
Li 10.497835078306233 11.41781868523258 8.729863764703975
Li 9.703631503227584 7.041804267585149 10.960607423706458
Li 8.056872066627582 12.658328222589269 8.376374253371194
Li 7.785824047560538 10.385561184226788 10.066100075296427
Li 9.210385617508617 8.950528799547556 8.007738430547214
Li 7.283878395590515 7.653974704349213 9.9310967586157
