9
Energy = -11.0721697 eV
Li 11.163881270375615 11.570502308469159 12.016347919240642
Li 10.509692154781032 11.500672727643053 9.20345230265966
Li 11.193078152322455 10.12598656201217 6.761093256847837
Li 12.673005140419082 9.791513872915365 9.713130413335143
Li 10.68818502723973 8.880071457289525 12.073341671860176
Li 10.046949336089687 8.831757683020708 9.234344927042287
Li 9.469188910351653 10.690065829910006 14.303015565364136
Li 8.553415129811592 10.545455020898078 11.205430174033472
Li 8.18511791706892 10.546487576301413 7.972356808076416
