9
Energy = -9.47281392 eV
Li 11.295008834088469 8.824347003889798 10.240946559562294
Li 9.605940200960136 10.629759878420263 8.125759255433293
Li 11.057841580815607 8.255153001483205 7.413206968279743
Li 9.491043288888473 11.064812642575239 11.043765239826113
Li 9.960485956702472 6.0523988324347595 9.33170864137361
Li 8.609379615188242 8.58540385191889 9.796017779689507
Li 6.661970677978519 11.241410173992808 10.676226420443
Li 8.445560974233238 7.556231337742814 7.1014672692156795
Li 6.755221827738042 9.672936234135165 8.153354822769703
