9
Energy = -11.32752417 eV
Li 9.876934068640486 9.271006134068754 11.994136716558149
Li 7.886667043004547 11.2674714002681 10.86685427527286
Li 7.565887627804734 7.796604067482809 10.469136356847715
Li 10.868697111502938 11.402680890922309 10.096514299374572
Li 11.336232771326172 9.436847746780426 7.745936020494901
Li 8.869057800020853 11.369581083172951 7.640631016450713
Li 8.80579502165922 7.813164611466244 7.321591595716751
Li 10.628202282977885 7.278533095891929 9.745080373611325
Li 9.232562762307946 9.482112199899873 9.400786253333042
