25
Energy = -50.42601052 eV
Ag 13.32465000360999 8.40016435102121 6.548991598520981
Ag 11.457491885760833 7.430166627152548 13.407293316966204
Ag 11.577549115871145 7.771124719078186 8.578911498007098
Ag 13.750031156598295 9.770757038493851 8.889794379140204
Ag 12.285253923558551 8.832855420254772 11.083620834954672
Ag 10.093831530248979 7.1181547442647926 10.842315809265079
Ag 14.611690267123786 11.926845928484958 13.871547525113742
Ag 14.298757834211248 10.848122085436883 11.3632959928469
Ag 11.434940986805977 10.314645609452274 7.396059792858165
Ag 8.675149766573305 6.947938532460916 13.184052312259842
Ag 12.35288658924435 10.375842900243798 13.419487924083734
Ag 12.721951573493673 13.121213484993131 12.171304392027576
Ag 9.810847055522467 9.45085014089185 12.594261977520484
Ag 9.646364699326439 9.63735233664458 9.561912201818108
Ag 11.804675233575216 11.50291728775251 10.100388206751223
Ag 10.248606433857647 12.163158531608618 12.85508972839504
Ag 8.691364290789643 10.011213119232623 6.914097713693729
Ag 7.580557067875696 8.564112092836723 11.116996583334977
Ag 9.632212719848404 12.217628651944457 8.350476072886822
Ag 7.040957680510722 10.65899667165559 9.057111702740348
Ag 7.928581359448459 11.28338246238729 11.610673336953969
Ag 10.380805547906041 13.854788907345279 10.683480902554829
Ag 8.101868968970887 13.87676449566829 12.599917228052893
Ag 7.638347517383762 13.40377787091299 9.891731355404303
Ag 9.323219340106242 14.96377188258719 8.351386781206353
