14
Energy = -18.82032788 eV
Li 9.178454396051421 8.656551952917788 10.034125991535186
Li 11.59979929181328 8.284590304215227 11.252252073765376
Li 6.759911502191486 7.840040620072119 11.123810013840435
Li 10.757181902350847 11.036015700674112 10.210966335150173
Li 8.129501763180722 10.937416504348615 11.401623622528462
Li 9.997535227259437 13.683602116107384 10.933165526546095
Li 9.410431402890891 6.062037766100751 10.919751521891143
Li 9.990458638533122 9.8807252484221 7.638681713029606
Li 12.817685502608038 9.773434650418238 8.708896391925952
Li 6.974323519488647 9.794734836131575 8.850528872206867
Li 11.562331025601376 12.694323491057805 8.144432720916184
Li 8.657492432105743 12.283880825741061 8.817757418701813
Li 11.111343120128184 7.13994561994898 8.643893907874723
Li 8.060836184513553 6.939985818202752 8.327398662908722
