10
Energy = -12.70906234 eV
Li 11.451856499276476 8.882246919556685 10.262523870381248
Li 8.596070383632279 6.381115335479538 8.848807141054921
Li 10.837391318030019 7.987484938940707 7.350567997847092
Li 8.731171529796992 7.999197194666613 11.489249826296323
Li 9.02763931246314 9.027770109224878 9.032864034786343
Li 6.399760374551121 8.517492422656076 9.449969599745973
Li 9.216769233892274 10.978364277101043 10.85878893619216
Li 10.69261690068954 10.964416912230776 8.120482979573866
Li 7.789788309087322 8.448977034344171 6.680471560306326
Li 7.554586634070688 11.110585351289354 8.203924549305853
