18
Energy = -25.34229694 eV
Li 7.75955685106873 8.972880504479985 5.480818359976082
Li 7.130724024894335 11.882628920445494 6.49449653639749
Li 10.352440348075305 9.559502524034816 6.78825035806561
Li 5.419239676086557 9.590698524389211 7.55398707631181
Li 10.073387874870448 6.498921092556667 7.20837956347879
Li 6.286381362700737 11.616918746551164 9.594051013061634
Li 12.438625074325504 8.025993539908896 8.516426027755573
Li 9.032555516012865 12.5792738472127 8.747478855956809
Li 7.324908510025557 7.2850055890357925 7.744749642858349
Li 9.727735382496299 8.002617076081496 9.536631134450005
Li 11.128973562945994 10.598786156337122 9.331766836305134
Li 11.24550708352742 5.7909968447427 10.331074983794142
Li 8.292041825555856 5.523322231706779 9.83458050454923
Li 8.06116272877179 10.002558281387968 8.272690165794371
Li 11.636659104283215 8.605373365781801 11.507230291227318
Li 8.84923703150844 10.335725408847122 11.106628309965535
Li 6.742410596139017 8.404776360793916 10.33346729083181
Li 9.038883724195463 7.264451263190057 12.157723326704437
