11
Energy = -14.13291298 eV
Li 12.047128845548833 10.199401347307683 8.656205535596984
Li 9.728268739771764 9.803812374569128 9.781695693125233
Li 7.814436876507694 7.82568450297582 9.358492082188596
Li 9.376517425630468 8.960430224091017 7.215576727768549
Li 11.071271950783396 11.62745801955153 11.466999195192248
Li 8.05909282541801 11.537611492486363 11.188371255330177
Li 10.791037723890865 7.236640379412219 9.313410933927356
Li 9.485028590238521 8.688845602183292 12.094382728947695
Li 7.177291514144041 10.62480257768505 8.454921311368144
Li 9.599569136152219 12.371033569425064 8.881402929531758
Li 12.367051966804262 8.908273059720958 11.26327814809977
