15
Energy = -20.66680834 eV
Li 11.63988939306004 8.130336411329004 13.194050710986946
Li 13.002043729907061 9.97790257690813 11.319554268945161
Li 8.825556601988218 7.85618553640295 12.351814878382042
Li 10.234995983516466 10.875562322745402 13.140541898749952
Li 11.532610547224248 7.004900732869189 10.352439251088644
Li 10.822242912750633 12.134037135172283 10.262397386424293
Li 10.473961226972442 9.35689124398852 10.974390057715237
Li 11.70331179906613 9.499884675183376 8.38440279276014
Li 7.88687483842598 10.641047677099746 10.98467801698515
Li 8.12312745684554 13.056024012269429 9.122711765453243
Li 9.282359700056531 10.595727541042203 8.692165026414735
Li 8.772531930281069 7.991164569027987 9.107204524615577
Li 10.25533526302762 12.177535492850293 6.917150600853764
Li 9.449390214377782 9.139185875215038 6.346525842642467
Li 6.894378014299579 10.462223809695935 7.748582589782262
