15
Energy = -18.84919954 eV
Li 10.7630962635579 7.5262291295648485 6.757116233331391
Li 7.25887732947443 7.619684144985949 9.008591813373263
Li 10.617510861235417 7.523424902295393 11.47160478758528
Li 8.295634161697233 9.075885541123236 6.626925801131096
Li 9.986253377264433 9.054622527996496 9.093276760894078
Li 8.14780750228231 9.073426968741034 11.451129699718074
Li 10.652550157560075 10.565599888102078 11.47417197857229
Li 7.29288452465537 10.550853559293115 9.011680902622523
Li 10.797184252767748 10.568782647601108 6.7593452994571495
Li 8.246459032114295 11.948618246782665 6.705548948986076
Li 9.82876826014165 11.950049960022836 9.089716315873376
Li 8.103566299918896 11.946031133917284 11.372736540482142
Li 8.037821454707785 6.202468158942118 11.367019851790147
Li 9.763520923483808 6.16298189044882 9.084555881614722
Li 8.181828099138269 6.205103800183149 6.700341684568003
