14
Energy = -18.91669996 eV
Li 8.948929630386353 9.144128309360267 9.022079585601384
Li 11.956597817568527 8.948826065763472 9.503261018404821
Li 6.107664159241337 9.233928606940049 8.427112209794183
Li 10.758265108915515 11.478236788390056 8.858675431475458
Li 7.574204891812831 11.704014806090264 9.520620099628424
Li 10.374990543305469 6.615036447836604 8.567162824147948
Li 7.576921833375201 6.836869362795059 9.700369440530235
Li 9.67732057232405 10.854462952781612 11.450939067832156
Li 12.515651277337035 10.582447386476451 11.796848509319135
Li 10.107222717671974 8.017584026476673 11.497862152912779
Li 7.121321205568782 9.33341124763436 11.331270741228112
Li 8.314709270024425 10.657113868773596 6.786359298648816
Li 10.829797883721419 8.97863038888831 6.757258773114743
Li 8.088435440931041 7.567341507003855 6.732212729967314
