10
Energy = -11.67234906 eV
Li 8.36841316410782 8.183966520222336 5.928464766195933
Li 7.423235277224341 10.530802369223677 6.9749121821057525
Li 9.954868694397476 8.099500909715756 8.026812996795618
Li 6.5111966382894275 7.700924665780297 7.891783086744484
Li 9.764570710578433 11.240135637644444 8.018409525144957
Li 8.01372786445162 9.419715814158959 9.44276088866624
Li 11.359128466084558 8.104374824291378 10.214739311996128
Li 7.799300862597466 6.491263103826773 9.856570350456106
Li 10.310387837734396 10.631483230381054 10.531687710875097
Li 8.987447697990717 8.090110138211989 11.606136394476204
