10
Energy = -11.72435689 eV
Li 10.36463075469045 6.226654250734782 7.780881055759179
Li 10.871246667528006 9.211279259640282 8.463335326057475
Li 8.168002415042924 8.291036239099213 8.427843711353168
Li 9.860986781441326 7.34500619003238 10.530122037603359
Li 11.038132597561821 11.992739333986366 9.86732553814131
Li 8.792665276176137 11.364220384328624 8.091451124711389
Li 9.053564185278864 10.116626995864339 10.597289575398658
Li 11.898482404143765 9.525354853951153 11.194511762929146
Li 8.338404815011435 12.928292403893906 10.813144046739081
Li 10.144586491643404 11.529492476986812 12.76479820982523
