12
Energy = -15.64290885 eV
Li 8.038494370745811 12.31155019543043 7.323527687470492
Li 9.877343594735127 9.995588916540715 7.155269381310098
Li 10.944918138468456 12.590176628143114 8.34848434856871
Li 11.23074244806493 11.955024890046568 11.334194983061943
Li 7.336872880571864 8.753282870472011 11.038381253665998
Li 9.413115151851278 7.900691798839501 9.322303922060927
Li 7.069799474855172 9.330130569435548 8.044641083020354
Li 9.043177376518475 10.832743134251297 9.649726658698295
Li 10.180728646192982 9.069951944356662 11.779335254177896
Li 9.069793863842122 6.281002790211068 11.76447563134969
Li 11.866719439175233 6.99268244296372 10.666293486087062
Li 11.803276858634888 9.862156062966255 9.44834855418487
