11
Energy = -13.73683354 eV
Li 9.42114687488788 12.553220519085222 10.23452038557896
Li 7.004246074715988 10.720011288353875 9.911757184615379
Li 11.802990911467832 10.817652761528848 10.473869531510763
Li 8.087159013684454 7.733207285242507 9.973109072965949
Li 11.096764716732835 7.92762601532989 10.299261590496696
Li 9.641276907973381 10.003781967544544 8.745514814409143
Li 9.325490363978627 9.89630119852316 11.602382854566583
Li 10.786663441964643 12.149984545059311 12.917494205017157
Li 11.849321359046163 9.147070974226263 12.975266930619453
Li 11.360421835728197 12.334533512333083 7.931791992923098
Li 12.444123814534121 9.360418439014863 7.9455922949877635
