14
Energy = -18.90140862 eV
Li 13.737457214258878 7.88097289734547 10.008755197006046
Li 13.416372942886213 10.043268293707397 12.17749819961225
Li 11.521108647872358 8.159563682040172 7.8579613403768995
Li 12.287781081835938 10.497574211137895 9.2469767465068
Li 10.749133231361224 9.54457836913197 13.79092379307572
Li 11.132988450462548 8.751776380493874 10.972030057940884
Li 9.94769535596715 10.819315348779995 6.6418458497208785
Li 9.235354888672514 9.505183815634782 9.026259138992655
Li 9.205589371544278 12.19382455598505 14.088731026145561
Li 10.972351199422384 11.663470888181381 11.84181364794011
Li 8.56979764850778 10.414691695199327 11.651978296659987
Li 9.911546979152227 12.085164897683251 9.267501111061586
Li 7.223464729014714 11.57313875148765 8.608060701478545
Li 8.210784300825027 13.202983031267616 11.330683662883441
