19
Energy = -26.93112679 eV
Li 13.310025841224071 12.69797124565344 8.315712052136382
Li 11.765809826015142 13.000904479441253 12.996171774751957
Li 13.812346294606208 14.149743469131547 11.268675264754016
Li 15.417222592427304 11.833714201522533 15.923181083442941
Li 13.443329980285977 14.373366304351077 14.769329424235108
Li 12.15026265060929 9.701768972412609 9.19419126461952
Li 11.440989972381821 15.66818044830565 12.65288182204627
Li 11.332110488895491 14.648803429846721 9.71057040641136
Li 9.643369660695859 10.367919415609004 10.88285090003939
Li 9.377010092811656 13.357753255976279 11.677856587019187
Li 14.504019813611837 10.948108186522584 10.725731131513063
Li 10.163147083331616 12.119979070298433 8.405367419391485
Li 12.249664685857958 10.047943597135585 12.420051066645627
Li 12.547018847485015 11.381167584815403 15.24245149037171
Li 11.875832739259312 12.071672195571903 10.50403412346062
Li 14.448578489068694 12.113362830467386 13.271589983543029
Li 10.173494265150007 13.988287378179525 14.902366062626283
Li 9.790811038894608 11.13619266795473 13.800914781685364
Li 14.830731355092796 9.434463991101794 13.855429161573925
