14
Energy = -17.90450703 eV
Li 9.08286953234888 9.111699764604552 7.578880369529255
Li 11.989999440953202 9.111294546377295 7.706350837211613
Li 6.168643028364139 9.145328869893605 7.832628326542492
Li 10.540512454132655 11.622102453525635 7.758302962806083
Li 7.6055962632693035 11.632107022590052 7.810355147304374
Li 10.535171605937062 6.576324684112669 7.707158375279026
Li 7.654855667801975 6.5745583508203405 7.780840126634673
Li 9.093554841200952 10.85741765422454 10.155558989804627
Li 11.948597759020121 10.72273555759515 10.098354993440731
Li 6.2444721662227405 10.749761129769832 10.215555913024819
Li 10.636141166496165 8.189313121335648 10.102973729047914
Li 7.569940311513419 8.200140420839322 10.170096508061421
Li 9.119538591009574 5.7796935197769015 10.114270887700851
Li 9.151923044613216 9.069338904534458 12.310488706495395
