11
Energy = -14.08264996 eV
Li 11.229882754047093 9.626284109140073 9.430546245110762
Li 6.155041467340826 8.123983351583858 7.158276855885749
Li 6.957179085887726 11.044960779363079 7.51522091341267
Li 7.517421285517709 6.449850387686027 9.312886313439968
Li 8.785570788338934 6.559942106236066 6.54901679098461
Li 10.610001426801398 6.755950504807097 8.887307219033016
Li 10.98202760902014 8.653377710537125 6.554278196896475
Li 9.03209246517499 8.346266067897965 11.102959075246474
Li 8.602065369423505 11.173242950269364 10.062814778885148
Li 6.296475844082845 9.30052716036256 9.902988757293716
Li 8.68069889905602 8.814071856190626 8.372161848502861
