12
Energy = -15.59723538 eV
Li 12.092079861650141 13.480578096041661 9.235434186474874
Li 9.014686379590357 12.947704071231843 9.934540765429027
Li 11.084395663318539 11.266441757486671 10.996283771327514
Li 13.186991860593425 10.547311285996287 8.812666334757642
Li 10.560517411483765 11.198119163488355 8.210251672495572
Li 8.263787924117246 11.224321366905787 12.25951270356522
Li 9.751171122557551 8.699175625672286 12.358398027676284
Li 11.570454119803868 8.482176494983637 10.118309761660315
Li 6.933661539429046 8.32327206564211 11.675555292169266
Li 8.844675617895115 9.673961990838652 9.867510100348644
Li 10.563609792154445 8.285040315053719 7.605059324136915
Li 9.08792498064261 6.811100123366643 10.002048350549892
