15
Energy = -20.47122144 eV
Li 7.574816724115233 11.78352941847535 11.00998344345532
Li 9.638264873209936 13.750769494571552 9.766993161421002
Li 8.750680907989645 11.296309632665219 8.191193239462729
Li 9.817889429039107 12.895521717974 12.858973274479585
Li 8.368875309506585 9.041292296425334 10.215642405133455
Li 10.329024145479588 11.18253088521753 10.686281970806256
Li 11.694537611438948 12.087907917509972 8.237100332346627
Li 12.375596461185392 13.091384153394124 11.092776973826929
Li 10.896897528940581 9.16228883086684 8.579969626183924
Li 11.988905314038572 10.790523843654032 13.106822967137882
Li 9.03187632019965 9.96596927191 13.056819117259163
Li 13.11144653685881 10.321781900693482 10.285677172108214
Li 11.0928174956231 8.434078532172329 11.449180002094387
Li 10.054093949625633 6.4710622763690075 9.545676643482924
Li 12.96088383949904 7.262952996070073 9.511940060321308
