18
Energy = -25.17965627 eV
Li 11.494905257163978 11.080933819050676 13.012790910744936
Li 9.084853046251814 9.471020036112334 13.826056508531849
Li 9.352109225008375 12.666443212811654 14.07513399371687
Li 12.258734153130234 13.822331720372919 14.082252246592283
Li 10.536814174908551 8.616625868750242 11.333196641073915
Li 8.931067382970028 11.108149799296795 11.505577543723847
Li 10.762244872947827 13.548415761207977 11.56969373093506
Li 13.605005404787983 12.520158312804076 11.524965688289582
Li 13.482578087940796 9.399717788403077 11.421640979310633
Li 11.540000468274439 11.099066009734587 10.033945915145475
Li 11.346522804751427 11.131179448799237 7.235838551523983
Li 9.224940487323256 9.589182925090775 8.871139348217696
Li 12.043960826866059 8.510409105932597 8.792967982019544
Li 9.311476158957637 12.698054291895813 8.95439163210624
Li 12.286442195861067 13.544584542508838 8.880243097100218
Li 14.018408691840182 10.935337048120818 8.860203407358958
Li 7.680952724166573 8.369547164418425 11.146780551894333
Li 9.491110997228379 6.685970360328574 9.235102411201991
