19
Energy = -27.51160001 eV
Li 11.178695699242233 11.071442336623672 7.413440344884656
Li 9.195389644582983 9.150027061445051 8.532932747165084
Li 8.743129500078608 9.663680422241452 5.993792186830495
Li 11.549933103061983 8.106291352846078 7.501197208015
Li 6.564450927180139 9.965610407636156 9.096643187202421
Li 8.561022622759273 11.981141741068948 8.159439833550163
Li 8.235667679348381 6.832538964246017 7.740123487136397
Li 13.679268869728041 10.798046755263622 9.2255013622139
Li 11.381819484472402 9.69082312276635 9.98458348017773
Li 8.863375672053984 10.574336375149274 10.75537992296513
Li 13.191311736482866 7.980697434100826 10.897626211270453
Li 7.52294409024088 12.859306448415651 10.9341803914156
Li 10.875827165981555 12.522450135444224 10.127710000245765
Li 7.822065821292433 7.791750239019152 10.73778425926755
Li 10.42911464683905 6.895871376016711 9.993728174980747
Li 7.0440786730042815 10.104243987749443 12.635461747577562
Li 12.543994979904557 10.781301323557598 12.123294527793789
Li 9.668224597863626 11.796638888259034 12.977810984668919
Li 10.228394177177462 8.712510719444937 12.448079033933134
