15
Energy = -20.60908994 eV
Li 8.247632494419634 8.461718642569803 4.694966586992829
Li 10.151871224308094 8.203723591976507 6.924135690654793
Li 8.276640551121853 10.632151408324024 6.866746742974429
Li 6.2299506766290245 10.08533401837462 9.020676377967819
Li 8.904969369731534 5.644647090914473 6.133550200932276
Li 7.3792752187690995 7.767841967271339 7.381771342958911
Li 9.398590026005055 6.212575774943873 9.095848146694616
Li 10.890359296522142 10.884758133312113 8.341427043316955
Li 8.918423465300165 9.223529659687623 9.563311697746517
Li 11.57974026734695 8.186758058477459 9.707050387993405
Li 6.917629406320733 7.340423934030083 10.37251711037199
Li 8.423274290155575 12.085323317623695 9.67010011523658
Li 9.545563099293748 7.622719152861007 11.898483673294596
Li 10.539779397295993 10.55505992954893 11.404732464112337
Li 7.505740859708763 10.002874963013275 11.83412206168044
