15
Energy = -20.38428232 eV
Li 11.194725803272801 12.453308021171505 12.761695834250673
Li 11.297010885005912 10.074741037119617 11.364370858670311
Li 10.222778218395932 9.539214844005325 13.815704650234803
Li 10.319225032645402 12.713161768465342 9.848115037613187
Li 8.633690334687094 11.047652809138672 11.54887980021854
Li 12.669746804448293 11.262084342109665 9.260726442104929
Li 12.064046755975431 7.501089736012641 12.264603229028902
Li 11.743949007615893 8.149177438660214 9.20282715869248
Li 9.37583357914226 7.98314663529583 11.210052492146788
Li 10.554139688528553 11.685590380996588 7.001094833510735
Li 7.795462805518765 11.930278643703849 8.392395433073535
Li 9.668646884047194 9.970963963322118 8.961191162002601
Li 7.115481183430276 9.096202124178088 9.429728400677703
Li 9.04990415527416 7.080047888419217 8.365547379209458
Li 8.340136991840106 9.456951606614014 6.601642666792252
