16
Energy = -22.43330376 eV
Li 12.990286819650747 12.357032421251443 9.609521610012417
Li 10.65208772684408 11.845104923174574 7.483402878965969
Li 12.196050603082176 9.571000357392066 8.464869877622565
Li 10.5862549013464 11.40033454317692 10.228329776729947
Li 10.133124814786246 13.94739280422953 9.68449316921795
Li 11.474798101240161 12.702210429806314 12.376719144112675
Li 11.225290434096017 6.749097678919569 9.334168067261771
Li 12.286718449507093 9.415502706724443 11.40706054938205
Li 9.646307267369826 8.698808808789721 7.3580598208005785
Li 8.381130278939064 12.347562094307484 11.646271480842383
Li 9.734481102259155 7.088518522285826 12.116872890952585
Li 9.809817854336472 10.108921864445053 12.84328375945127
Li 7.988640026376818 7.0534484821844154 9.37133429840888
Li 8.109205260511034 10.854392811898443 8.95983393909748
Li 9.778200406501856 8.850457584414068 10.120967054708478
Li 7.390839409330826 9.202626601833817 11.483385397266582
