19
Energy = -27.04607259 eV
Li 12.00110277138593 12.044437519011552 10.757058517087815
Li 14.324595548626611 10.23770755103481 10.97722106317726
Li 9.466392424101086 10.40882132935155 11.171905343373382
Li 11.986941359878303 9.65241052809694 12.652549651210789
Li 10.382114897638361 12.239121846056277 13.198511648714204
Li 9.356023697150256 13.345426360095388 10.603210541268954
Li 13.29640293365027 11.430760774546986 8.27654166870261
Li 11.868742235371611 14.100494124149634 8.842579358094289
Li 13.320886388004126 7.333791776591382 11.388434002558226
Li 10.075303115851476 7.635814822220872 11.577651797922602
Li 7.3864819942699995 11.77177000251171 12.4470425982472
Li 13.447428386336364 12.221538103718563 13.254311479856735
Li 10.254808778137708 11.456699933731556 8.455388999153413
Li 9.13303217482683 9.536348205173901 13.831580499581195
Li 11.794688084612881 9.225001762124318 9.720807180502055
Li 14.404251845658992 13.40165173801884 10.473146938627167
Li 8.80265081489608 8.806434895650657 8.9417054991538
Li 7.208039806733644 8.739186308029568 11.621215293091481
Li 11.91388470629946 14.602860117095553 11.90608822517502
