15
Energy = -20.19953539 eV
Li 13.095159460279383 9.388509627795115 9.868833330980094
Li 11.385593731367516 9.301510601637665 7.518163759977832
Li 12.053668223118878 11.97707925762006 8.635603691850601
Li 11.931556359376076 11.598254831980599 11.703844804387979
Li 11.288414711508779 8.673735207588496 12.022594765693167
Li 10.470272066168258 7.320604450303851 9.505087210450199
Li 10.485609477122651 10.13843557520761 14.329486272004434
Li 10.126872742994427 10.218647477633752 9.938699805970186
Li 9.569292344828847 13.105532396591839 9.768125185427886
Li 9.046290952934788 11.533850387411468 12.247060119852756
Li 8.996279575284914 7.946997414289053 6.620642398831626
Li 8.458096540804467 8.73409500343454 12.02254229085743
Li 8.935665257862576 11.040360565987358 7.517612937913587
Li 7.187332642422092 11.278829976246683 10.054021566716242
Li 7.910480581166821 8.63963017163504 9.152003824518324
