13
Energy = -16.81992993 eV
Li 9.577949674269782 12.98463595858497 8.961722553240032
Li 12.573539140764344 12.498107703620667 9.963664553872244
Li 8.124427747979396 10.434892485454988 8.043232872287685
Li 15.191719366524207 11.321815211641178 11.035760611515348
Li 10.755861119385425 10.422825849747882 9.195354137440656
Li 7.2749177150332205 11.815933245156948 10.527802006867796
Li 12.539007889918883 10.1277676077679 11.551804531393197
Li 9.920449733364617 11.648160534276743 11.687733031946884
Li 8.63738567172536 9.245985071366844 10.78436890105733
Li 7.615501937567433 10.40987158157301 13.268917532240655
Li 13.665075907595142 9.76548154820318 8.982232137646523
Li 11.390177125197077 7.865366581604857 10.296418817688973
Li 10.283913890967677 8.89213840930982 13.113625921453853
