14
Energy = -18.63849144 eV
Li 12.364628666035822 6.84803462470632 11.52814281462556
Li 13.446343101313389 8.088422896320402 9.022487549843587
Li 11.994523856522553 9.738987506048257 10.974025578281644
Li 9.618163065437285 8.31970685904105 12.133791967132517
Li 10.542596271106548 7.7343821014222875 9.33938182561858
Li 11.097357304013954 12.505998043691715 10.075652946662812
Li 11.52230168502576 10.320773558285616 8.011097786954666
Li 9.877053057190608 11.265964704611502 12.62922455993442
Li 9.289332541404738 10.344337174521975 9.913697678548367
Li 8.853345896924921 9.171326605996704 7.207695586305749
Li 7.201162538401435 10.06129590069877 11.811266401210851
Li 8.104986023050921 12.781479274607275 10.63712052984519
Li 9.149442740881868 12.125898310353326 7.71162074297248
Li 6.71128078317232 10.674530131169831 8.776975392595702
