15
Energy = -18.7900405 eV
Li 13.795022016087987 9.757702326354876 11.6534318691546
Li 11.886332981447634 12.098746934812711 11.671247783601515
Li 11.06454617694482 9.138825285645542 12.920924138967944
Li 13.375129898617766 11.030174365120299 8.970055621359277
Li 12.540011231052976 7.769348041955974 9.795680398579968
Li 11.29680504442189 9.955887863305232 10.283805545245592
Li 11.138880305245523 9.655532952193285 7.475010668648618
Li 10.266109178872666 12.131461739041738 8.910041236958746
Li 8.821222322170197 11.648062311243388 6.386462972545222
Li 9.231547437591534 8.0673449510008 10.868737852752027
Li 8.56602329393009 9.851488587174801 8.675782505334828
Li 8.856343572939016 10.866494421299082 11.483180975023364
Li 7.236596415302758 12.213334222006342 9.168045051880574
Li 7.919022096928299 8.801804869525293 13.45965973066523
Li 6.46937240348546 9.476755504359547 10.740898024320822
