18
Energy = -22.35412592 eV
Li 13.345273730426596 16.061270488175214 9.880840860339966
Li 12.90850512482755 10.14184186339073 14.583720872120713
Li 10.904351474231273 8.686425734111877 9.21720258030781
Li 11.45700602372333 11.977457969268384 16.23568259742828
Li 11.308960686522116 13.527288053032423 13.835501449125978
Li 13.38623490891627 11.940826511056105 12.437616729955602
Li 11.782418575650109 9.393996327889893 11.901264611052769
Li 11.110777578194362 15.099061899969449 11.362988494973491
Li 13.590126562013637 14.753739328047649 12.444432016113979
Li 13.78667241773018 12.913456164719314 15.072677854908827
Li 12.720083064546541 10.937452044447166 9.674628825740873
Li 11.895518216347453 13.701514517734449 9.086509102244428
Li 10.28469463693896 10.868001776004846 13.859862261128626
Li 14.36949385949202 13.380425303810656 10.137148588358883
Li 10.03926782834027 11.274748072688931 8.647579978585913
Li 10.692013875309325 12.210854138195872 11.262422142894927
Li 9.116051626427941 9.845071903241074 11.060613792186015
Li 10.376800675362126 7.129752009057214 11.455061279478763
