17
Energy = -23.95510245 eV
Li 11.23135876916463 7.083551015101647 11.462370872772855
Li 11.525769415591665 10.32050562715658 11.943898309164567
Li 11.268775213213193 11.281334099240295 14.534788689228034
Li 7.779925793146436 10.65622102004705 10.469305968833142
Li 12.576344159711633 8.599657229395271 13.672580606934256
Li 11.564100160078612 13.409833802950837 12.023081669364243
Li 13.309255423319676 12.012104160348082 10.100162552333819
Li 8.99754526387762 11.593659705610746 7.772527806288164
Li 10.35831355041172 11.753892271788406 10.039881817206721
Li 13.943448446053356 11.28232077754618 12.916175584792441
Li 13.344732698128496 9.032739634260407 10.454195040433309
Li 11.94132056325778 10.650925949429311 7.954797180677546
Li 9.365437914452908 9.031050373879625 12.872021163180603
Li 8.577753649967862 13.736234768354478 10.207347566720475
Li 10.108630819406672 9.008778494298658 9.624403207815098
Li 9.059820078558653 12.01173220881739 12.678967197718089
Li 11.336923344146175 13.737401194562578 8.541464849449115
