11
Energy = -13.59503197 eV
Li 10.01325678910114 7.41347965457621 9.107618244573594
Li 12.40459597156198 9.254567255152741 8.900332482324455
Li 10.080773034758272 9.683251499884168 7.303649568407601
Li 12.44736589982822 11.54784375338905 7.020150184209397
Li 10.63524583145483 9.289435512783138 11.342365105725879
Li 11.169109378016527 9.728699893255738 14.247428890093206
Li 10.587141003665002 11.522821395697555 9.375253710731782
Li 8.240746439703086 9.807688154103875 9.803760683483913
Li 10.908181760563465 12.015267029500585 12.372642270013598
Li 8.573804506813518 10.432624011369363 12.853199765676099
Li 8.30401124039421 12.619384429764686 10.975332814093234
