16
Energy = -22.05102971 eV
Li 8.485876143079459 11.252482905192988 13.789423866089354
Li 11.533100544193122 11.334274359870866 14.208686401315907
Li 7.17246425008897 12.777894276460708 11.272970148779008
Li 9.33191482838874 12.654983367839598 9.084225795836161
Li 10.67366600839029 8.217684225975157 7.509051556821114
Li 10.405331096246318 8.996246394536467 12.348082464336365
Li 11.120141593821597 11.247551349297918 7.150576676999833
Li 8.24744942587037 10.042005143027955 8.22447709347884
Li 10.80039550322458 9.994624755597245 9.699555464532208
Li 9.13771671860535 7.47357011979493 10.111615212013247
Li 13.378216032691618 9.73136906458059 8.523979449302587
Li 8.056314306750552 10.139169915116826 11.132137637370285
Li 12.174790912001045 7.471669218652996 10.28149708984996
Li 10.2070353388313 11.978688438103022 11.70121067287656
Li 12.360646464714799 12.535989129513831 9.551413775963733
Li 13.010336675389441 10.311742642418439 11.555481160930093
