16
Energy = -22.43245644 eV
Li 13.76274050048131 11.732301499064775 8.94183318498325
Li 12.993174190466497 9.951827249104443 11.821683072501521
Li 12.418838631437001 12.833788371607508 11.514030981896944
Li 12.819711046569777 8.736949499331686 8.516346865864413
Li 11.017398881310667 13.40187005966467 9.033668290491311
Li 11.278890127722816 11.128736720376116 6.962410352817844
Li 11.244231761526004 11.904027153880202 14.248010776113324
Li 11.377119240165847 10.721869765896246 9.584878491983389
Li 10.265059194215473 10.837156909100303 12.004665857788149
Li 9.62073697297206 13.54646761645985 12.018602188664081
Li 10.9208727790364 8.078459751773787 10.868920516169466
Li 9.5928745083028 8.971042257984982 8.408191188505043
Li 8.647128383161286 11.57923338922488 9.822103763217928
Li 10.324177332432717 8.89500760471494 13.83011348827925
Li 8.118572731188008 11.28796476524645 13.486057359286137
Li 8.231082877117906 9.00246337394001 11.43050895817667
