10
Energy = -12.49998394 eV
Li 7.9040980677897865 11.286349585957646 6.969676720634467
Li 6.0487236107221305 10.679405337503484 9.247765285881341
Li 8.869284827460367 11.14919507306955 9.82305593318889
Li 10.607375020315446 9.996771158327453 7.75126629935948
Li 7.4282390686986055 8.876846664258698 11.269706959079835
Li 10.20911013565971 8.558808404875023 10.421758808552358
Li 8.629218039227341 6.1686847943241245 10.02146660837939
Li 8.071433158707162 8.67069366374894 8.429066834467763
Li 12.849239948247027 8.832253757590882 9.33110968546677
Li 10.676358698387409 7.11243020518616 8.026659043757622
