16
Energy = -22.2376839 eV
Li 7.4438564012389214 11.391713828701201 8.986263905845858
Li 9.188155137687268 14.088984503285404 9.201652509165934
Li 12.020237736886282 13.162309477874782 10.294058123507053
Li 9.45203050140165 11.913948383835324 11.286002307193762
Li 10.444706740644202 8.747738503230229 12.324532438907305
Li 7.299369904690226 9.409021499637053 11.832258851134805
Li 12.375727664053992 11.308079515074635 12.960399984965312
Li 13.498069357729722 8.642243533525681 11.607426549484153
Li 8.957856251787698 8.626495061157724 7.394768735493011
Li 10.457352838116945 11.447921349540641 8.389831223408207
Li 11.663959692152163 10.410000325680288 10.640972533380646
Li 11.551408322209777 8.16774607124767 9.220779400713857
Li 6.5704352646097055 8.41079405546253 9.132480680982669
Li 9.064541921750806 9.397367487407108 9.895740340882323
Li 8.858317382417976 6.799126568202807 10.315089005920138
Li 13.718969998439736 10.641504951953266 9.082738524831736
