11
Energy = -12.90630102 eV
Li 11.707118960859269 9.511931722793898 10.293899904450893
Li 11.71741961769756 8.493259942899638 7.175137693274743
Li 10.578184512370543 11.294534722264197 8.413259902834886
Li 10.025224883477682 7.422838475795509 9.245449629202856
Li 9.868536353518113 11.947842992611449 11.518726450825769
Li 8.919354936064659 9.180659645668413 7.409953084827272
Li 9.079370542075507 9.175777217793653 11.429216110975238
Li 7.018058625982861 11.029561666384573 12.36617478404304
Li 7.152848233294246 8.061216186108256 9.478195625356676
Li 7.958008437164984 10.921153688377471 9.591621919979623
Li 9.453927282161892 6.43927612396972 6.556417278896179
