19
Energy = -26.64150686 eV
Li 7.790923242813638 6.857081206808187 8.445968882913766
Li 10.64015641041496 7.451021525455706 9.23045595991092
Li 8.376405920765112 7.507515131948149 11.33948305458225
Li 9.220499748710667 9.447460485425868 7.647797892389896
Li 6.921602807378709 9.43484054798416 9.690462460840356
Li 12.441725421301657 8.813691577684502 11.216464231725118
Li 12.340977732416572 10.007169282959854 8.48791319893893
Li 10.306657027610266 9.209646687754038 13.093888421202463
Li 9.673293461834605 9.867331356529103 10.441036288472636
Li 7.546321363431371 10.212985341110702 12.526508209098262
Li 11.835710175576589 11.627866013717647 10.797108118702678
Li 12.824335758339366 10.939419781612624 13.3775276297335
Li 8.197141695682662 12.228290221905972 10.356391575562665
Li 14.542747537228514 11.082105605405289 10.675223575248184
Li 10.323710150285207 12.142418929409654 8.410802896311163
Li 10.053789083393012 12.219191893528233 12.80047666106294
Li 13.198644191579303 13.172507906821417 8.94428865943242
Li 13.240422450156295 13.620868467932763 12.017595072381345
Li 10.627416002942772 14.214767482571245 10.569781381768635
