17
Energy = -23.9600627 eV
Li 8.544910586141606 10.962460964742661 6.936828066476189
Li 11.459223103915692 9.967086072300026 6.218242188475989
Li 10.984456882617794 12.349180672041681 8.438363888726828
Li 11.744197150456573 7.390185336979459 7.879277570612722
Li 8.72545713255827 7.8251063452017435 7.50632087480819
Li 6.164827017906756 12.502397572433614 8.29233802148725
Li 6.526546235845648 9.556755420681194 8.79654477210967
Li 10.49646741159239 9.694701075142785 8.661896106733314
Li 8.742914216079765 8.516974064100769 10.266227977968569
Li 8.401876562946628 11.47600367363998 9.696883145052222
Li 9.420585693451349 5.920897565776445 9.906649155483024
Li 11.541395640143774 7.837010942188506 10.811029281108086
Li 13.079419975475727 10.03611713848179 9.080499630923676
Li 7.022993093168333 9.944622097124157 11.82937234539115
Li 10.491192235796317 10.481053620047952 11.414424495470849
Li 9.009178908089206 7.53103990137161 12.695552567817371
Li 6.605522266670032 6.969571650601011 10.530714024210583
