14
Energy = -14.24156812 eV
Li 9.084001590234317 6.785100914289763 10.41761949919342
Li 6.470254996466538 8.576710287363738 10.445458808127809
Li 8.832490879796518 9.163525539724183 12.193727375470381
Li 11.539806776097196 8.677524538428337 10.932579012039046
Li 9.067675922425824 9.515809708888613 9.503926279952513
Li 11.195898503984782 7.73621689623551 8.304196835827334
Li 10.455316075627138 11.50331275660927 11.345317260243192
Li 14.032681679007775 8.648757619223879 9.222723539906262
Li 7.445519690513587 11.543954426420708 11.081850558893311
Li 13.419281584791104 11.025104104852925 11.142817464487518
Li 11.820293328317874 10.643597114589005 8.862558111074806
Li 9.391941268818426 12.443943133037449 9.026772764091096
Li 11.976061473907926 13.554007754344152 10.005107250736772
Li 9.238135519184524 14.151794495165992 11.484704529130209
