12
Energy = -15.73203986 eV
Li 9.631251702611575 9.953187879291193 6.392370580708479
Li 7.346416625415314 8.224375434733174 7.777660621357974
Li 11.181464220758237 11.570030939992193 8.492767443984013
Li 8.256968719877095 12.304164574461868 7.992852559772778
Li 10.144802460764124 7.378727941917035 8.23284273043643
Li 8.083327190106239 5.323720776309653 8.808721434617611
Li 10.391027226476119 5.687758316080757 10.622770077354858
Li 9.257264742592232 11.850589988833384 10.858445025849933
Li 9.127554487959694 9.958415835887783 8.99344812474755
Li 6.696892550917672 10.413978438164136 9.980646253182737
Li 11.013814814810912 9.018579033805873 10.679584142332063
Li 8.255441819456111 7.702697402268558 10.554117567401041
