13
Energy = -17.15147379 eV
Li 9.867576552228654 9.417708549395853 9.364380176637878
Li 12.634856483161293 10.838876109756905 9.063542639457193
Li 12.254714239704633 8.36140788716488 10.943764878198339
Li 10.11468386711409 12.62032490891021 9.248622369335882
Li 12.743813949567455 13.46625798435255 10.738851033971807
Li 8.354618343951008 11.208222270316629 11.171152846390989
Li 10.193720780387723 13.718079913926083 12.040956386404158
Li 14.043068663974976 10.898876671350504 11.819603832767312
Li 12.44336374058944 15.625192662659927 12.762924338227691
Li 9.55683234278177 8.582297282742196 12.236014296969634
Li 11.153748934974692 10.940252644698955 11.399252472620397
Li 12.457019989995356 12.718103535994356 13.513959897206504
Li 12.1465673400696 9.568984807232274 13.66156006031264
