13
Energy = -16.69753426 eV
Li 8.738528035532706 7.531388714271319 11.965079809210803
Li 11.153985221371563 6.851288430586194 10.203028047749115
Li 10.978253821127627 9.626633878784652 11.213056945170536
Li 8.581083884128226 7.413553794233833 9.10821359804338
Li 8.315474109752756 9.996647504072358 10.466640475681993
Li 10.261198288335319 6.532694408387319 6.995212059070051
Li 9.541732078951 11.90226351558437 8.76507971242022
Li 10.772351234275957 9.18824548738825 8.323325199315349
Li 9.646877420248828 9.034896682387702 5.581593817255105
Li 5.954413185679322 8.617618420244435 9.472027246008611
Li 6.435026463216718 11.746289151156466 9.220921878228795
Li 7.82079807633767 9.849779622444967 7.609949488074269
Li 7.290464626515494 7.199437005248248 6.549521763518493
