18
Energy = -25.31063508 eV
Li 9.919598785984078 8.549878339454915 8.917233797242705
Li 13.709054955846081 10.143186057637894 11.599908588895827
Li 13.000449832991446 8.72228961294253 9.290155151171202
Li 10.255654465104906 10.892716438716485 13.192754867928542
Li 11.108195087616012 10.819188658980247 10.032247825757462
Li 10.469616623013785 13.621249806223988 14.055539647251647
Li 11.311920865821968 8.589002327741083 11.808481890179252
Li 11.660833914466147 15.09219868169273 11.394874589957272
Li 8.77483818726447 11.42683285516969 8.561007969087333
Li 8.476149474256399 10.03238603871756 11.183481827958644
Li 11.076307163107954 13.425015927051927 8.894953180559956
Li 9.467655919369133 12.957215503842708 11.35559679366269
Li 13.634293426743135 12.084144704239684 9.347333024957628
Li 11.503740587611496 10.777280996939146 7.3171504734471915
Li 7.624050018639197 12.049837845483843 13.450162043310742
Li 12.355322548908426 12.505712974710875 12.113287968866254
Li 13.920306118633578 7.422199219114886 12.329073107462529
Li 12.808476717409091 9.988613765859803 14.250780364326062
