16
Energy = -21.75244011 eV
Li 11.96689471044331 13.065107921129272 8.514892031894433
Li 11.879271305695712 11.56644168345651 11.211637022651825
Li 9.462638589137606 12.018969042650705 13.089853772931288
Li 9.394006173519523 12.613261159909062 10.127838812356567
Li 13.606723080158483 10.508864346740967 8.674615184457773
Li 12.057420616853438 10.936125685458459 6.243328149267478
Li 10.894800388438748 10.403709342523207 8.747926747632926
Li 6.954666235564293 11.30869890823147 11.483667618081903
Li 12.144042936388587 8.10572632757044 7.544425701554222
Li 9.357965607870021 9.85849515253059 11.215869309485608
Li 7.992958716057454 10.328397698066242 8.665838514615572
Li 11.983663236010377 8.451888895289414 10.597066302019869
Li 7.05572455738515 8.265749229919601 10.866421834133499
Li 7.840793411574255 9.326787184376554 13.597131392598097
Li 9.627646718385144 7.1534883401489315 12.10818051099689
Li 9.557728507083464 7.749843414184429 9.145534544271705
