13
Energy = -17.2301686 eV
Li 11.332732530371285 9.465044533371179 7.408651131867129
Li 14.011670030776145 8.96126874098061 9.034423350391107
Li 12.31657055750267 11.236386829412028 9.449256585701214
Li 9.415287261940547 10.78415892428727 9.399305424788245
Li 10.477465592335754 13.55658070333477 10.32688298743507
Li 11.33947967774707 8.730888684930346 10.26831756083687
Li 12.979517409780742 13.067296414167167 11.858162732751206
Li 10.747897514634905 11.309220915842554 12.050431020492281
Li 8.167344425157227 12.436195294209783 11.988967642550595
Li 13.45875359460237 10.000708207881766 11.86377120183602
Li 10.398569758138771 13.756739818583887 13.43853445497561
Li 12.194218958491504 11.634101810136329 14.452287158638576
Li 9.210234688313928 11.11115112265497 14.51075074752874
