14
Energy = -18.86982181 eV
Li 11.57652731708177 10.053146592240948 6.734223747086202
Li 12.524638038221457 11.06373474762481 9.55812977530182
Li 9.526716963347912 7.692373448340473 7.756220932213107
Li 12.317067556573448 7.974067501351091 9.02466168629968
Li 8.615391689243332 10.474308632648384 6.753082223117126
Li 10.147327790920315 9.879117648461177 9.144191515310597
Li 10.242662047676683 12.489279172143513 8.124498745660985
Li 9.962493028342879 6.938833466552947 10.795630405893645
Li 11.45691454489213 9.061410937648269 11.715957042015058
Li 9.471844862180628 11.167370231479234 11.608859930024382
Li 8.883674128008622 8.68173686299881 13.271465419785947
Li 7.935795748407058 8.930114496273312 10.57143947103009
Li 7.5583206913717 11.623706032827778 9.42126995802502
Li 6.6462899567264895 10.836464592404093 12.386033511231041
