19
Energy = -26.65567375 eV
Li 8.642017010225207 13.284941804189451 12.698455006016442
Li 11.59155925466569 13.848975529836906 11.553746157217365
Li 13.007918953881925 11.199544139040713 10.981248144601787
Li 11.663062015169743 12.433104533760005 8.67943075794015
Li 7.184272511293875 11.92043723308862 10.181932547631032
Li 11.981440080914805 15.457256352640975 9.031437438971771
Li 13.257696824844116 9.471938469625051 13.336912417172572
Li 13.742822588963787 12.659786105464196 13.325325580201095
Li 8.401435214083442 9.913903977317883 12.187179844949126
Li 9.35435337275032 10.148692556924104 8.872012153986747
Li 9.904820780540057 11.80442771744664 10.844367511153557
Li 9.706068419122824 7.397902880286105 10.378325671395322
Li 10.547730314928037 7.94907626564748 13.531787137238622
Li 12.628927855711286 7.261763065186267 11.225427869883806
Li 12.123790328909708 9.193607260474831 8.810874280345509
Li 10.96517009969662 11.334896248135518 13.487259528313379
Li 9.244007485683552 14.118795335014845 9.592721787150106
Li 11.066825202586658 9.40678119488485 11.355406748303478
Li 14.20173922746537 13.72552897704129 10.290865919902915
