19
Energy = -27.40264952 eV
Li 8.963217010400323 9.902882245854132 14.294978492381508
Li 9.914583088539054 8.178290102977632 11.834829055637812
Li 11.45722188665364 12.693847693715169 8.281446048723499
Li 15.325073794098488 10.675673553143868 10.417742939797277
Li 8.350691002123732 13.02315300644947 9.261934790970173
Li 12.057861014975183 13.541802784126824 12.790517406350645
Li 10.305411724867866 10.036619148129223 9.389621026820537
Li 13.171480056511536 9.83355863081591 8.232637182150611
Li 12.907418979242097 8.60446823887656 11.125248615970474
Li 10.449823449225477 12.56123469045031 10.764414345839803
Li 10.894711562305881 10.652051490721862 12.60234833293287
Li 13.786548823617416 11.180247916008467 13.064468012971213
Li 13.67973490946799 13.588873393896733 10.39182865081834
Li 8.229092431821634 10.706010766374755 11.367026572903859
Li 9.097018829573168 13.185284676681118 13.012484684207822
Li 11.965107508252375 8.819020922151886 14.209429218135543
Li 12.676227148719054 11.14921102909606 10.502911868093628
Li 11.360354114822098 11.788754631258312 15.073723045779072
Li 10.599509217047343 15.149404987398945 10.589150695006191
