16
Energy = -22.09669359 eV
Li 9.642295404809726 8.772761795187009 5.887867665097583
Li 7.646261557498232 11.198263986156832 6.5309864181240895
Li 7.122695145484194 8.10022214826778 7.193764818511856
Li 10.684579165706143 11.48374964786098 7.102290154433418
Li 9.264160309364167 5.931507151347641 7.489630449801831
Li 9.034184906008964 9.918938757146963 8.496127359334277
Li 11.116054618801655 8.02338620455368 8.295817301671063
Li 8.333659806680833 7.54073099642238 9.843260011726999
Li 10.812826310631724 8.649615802931555 11.044734778667763
Li 8.487927630548313 12.633973383998226 9.17131117175129
Li 10.47552495356313 5.747810470702439 10.408968663227652
Li 6.429951110906991 10.273279415597987 9.23340224541278
Li 11.037467603690041 11.356694876461518 10.162441318045525
Li 8.962774292077334 7.701728897586186 12.834194898473786
Li 10.65464418750972 10.590205683489508 13.229968009035932
Li 8.531829553058166 10.313967338628476 11.312071293023164
