10
Energy = -11.84283364 eV
Li 10.445733683555794 9.509129346429317 12.089498595404734
Li 11.602375823802857 12.099254827465764 12.664902618967153
Li 9.767673474224143 10.908959213528563 14.603011189297924
Li 10.929995308110803 8.428193881996528 9.444921972402284
Li 12.438905055643211 10.654703588763002 10.409387621305516
Li 12.165801746579707 8.548770003132224 6.957458317656176
Li 8.921932047830433 10.449562487109448 9.9530219942597
Li 8.746194461122727 12.149989470099824 12.297669350338065
Li 10.54749092163153 12.767427657405571 10.040156660047716
Li 11.0679022944868 10.95213359529585 7.921074306252262
