11
Energy = -13.99923866 eV
Li 11.317955178237208 11.921461669840603 10.937357898350474
Li 11.021040753673534 11.65500644516001 7.800938522586755
Li 11.375272603827224 9.203855240451205 12.170763477187382
Li 9.817242433917057 9.907451016848356 9.669377676733365
Li 11.069589736344804 7.431601210489031 9.63305044669194
Li 8.29099616874987 10.631171110339002 7.157407896942816
Li 10.649579147044086 8.845141423922618 6.908182974426819
Li 8.962516999794646 10.904822703758647 12.420166133196194
Li 7.109938045820897 10.3177397919758 10.017288620956162
Li 8.271533929313566 7.950340977832787 8.37237341127798
Li 8.711237633285593 8.13382596499104 11.541272014980269
