12
Energy = -15.48916687 eV
Li 8.600826520422764 8.931492031389125 8.229433661441389
Li 10.65543678298296 6.645627142504875 8.969697730846523
Li 6.897871535578031 11.543149554406416 8.469075009357486
Li 9.947558286656102 11.665379649087047 8.01124358548814
Li 9.548565118822857 7.999393323838695 11.193099149571552
Li 11.194714730793521 9.397757129943072 9.448267695301503
Li 6.634831589167781 8.779679087128418 10.248220299889446
Li 12.685773481688003 7.892506591345054 11.260962987783914
Li 12.641842215052083 11.734750291079989 9.948396698458373
Li 8.745148241456405 10.681813480873485 10.38683358007454
Li 11.160081559686633 10.431483452852827 12.088855142502528
Li 10.092965180804953 13.14071061550099 10.525287589593269
