11
Energy = -12.83223433 eV
Li 12.853648077355828 10.67718776222748 9.409012547823131
Li 11.486695774989457 13.14462142454229 11.4900758072878
Li 11.57908222716224 10.094286001912668 12.107086943971467
Li 10.288149011791322 11.202367318788912 9.936966476760484
Li 11.899695027637422 7.774903830392818 10.03952473826832
Li 8.867160621418021 11.544175295186934 12.12631546455003
Li 10.131191746016405 9.01360071447839 8.184158806258683
Li 9.583341152952059 6.153520726384673 9.04153293619017
Li 7.693737134879556 10.692152854780844 9.35909061948063
Li 9.26780251801172 8.595030060103726 10.866071246534052
Li 8.84571437566988 13.60437167908503 9.936382080758554
