14
Energy = -18.91389043 eV
Li 9.551022555487533 9.058741329199139 6.199967866729528
Li 8.955907376289629 8.662253178626807 9.057373422723662
Li 6.192612239260172 9.152960357291747 5.267775133866098
Li 7.525036972583169 7.116699042704918 6.821268947566552
Li 10.197076551934725 6.276685880940049 7.8162992796671915
Li 7.4702758481047615 10.715547905022644 7.3208511768299855
Li 10.135173289301935 11.310034603575154 8.497093512477974
Li 6.0358936950501105 8.652488224522168 8.73126432532329
Li 7.76890471611145 6.014775550591441 9.573054335796968
Li 11.713122795082075 8.735428953622042 8.698930979739659
Li 10.433039987213403 6.882321168920231 10.82502412302241
Li 7.694763131616805 11.035245792588452 10.260049302747277
Li 10.388756660007314 9.92933545801497 11.241202523729795
Li 7.78478812807294 8.303856500496552 11.536219015896204
