19
Energy = -27.24170625 eV
Li 13.701274866205868 11.99161299986888 10.103956998455692
Li 11.479211103774595 12.769302611841029 7.971420089140384
Li 12.94638615749852 9.907602650636905 7.826135022467269
Li 12.407205041037992 11.106199516468749 12.86247431944408
Li 13.509041784220543 8.892934124060288 10.813303865178607
Li 10.031966999879383 10.24116981095475 7.45559779850364
Li 11.131120293176437 13.522803884725626 11.108738332496
Li 8.962297274805511 12.46212620498634 9.442087228591456
Li 11.378698568299143 10.758414904784438 10.1284201142844
Li 6.867792987928827 11.395170820342226 11.189721575341078
Li 9.525946697160828 11.44694825328625 12.427863189925217
Li 7.160327894315903 10.611697859664002 8.061474083900563
Li 8.8839937092404 9.52065994800633 10.18244902589334
Li 10.933416613481269 8.616795245953453 12.243589843849724
Li 8.559390689591046 7.718255638676752 7.912695682095977
Li 11.245095172529526 7.885066886426661 9.184534269620196
Li 8.080252523774938 8.951930317111353 12.948510661795444
Li 6.514933034749481 8.400599527930604 10.24343780005
Li 9.122253022918775 6.702750240183413 10.903628331603318
