17
Energy = -24.13242163 eV
Li 13.02967258722342 9.909665757089341 10.258546929759692
Li 11.843058922106069 7.632606270552872 8.748999196793623
Li 11.255267354855345 10.502928462641362 7.783201363923245
Li 12.165593892362462 12.84801972451437 9.993065947048855
Li 11.858145788455927 11.191519736602544 12.792358424557193
Li 10.825325266378933 8.202744253281534 11.60258619130899
Li 9.582558536375721 7.817269395183731 6.67847424332026
Li 10.395799821483095 10.88171813165553 10.543967407706416
Li 9.263705741544303 6.140108169011879 9.460554627662212
Li 9.387841558985842 12.771383282795679 8.7069802635259
Li 9.323375247047746 8.826969654787304 9.173692931869683
Li 9.423839493041772 13.093807741389817 11.749491576764285
Li 8.929010290031435 10.282849796501406 12.880132873604763
Li 8.20879079718833 10.508395539500102 7.1952577850269055
Li 7.756967166861474 7.999963152714548 11.372228974821043
Li 6.830483516251229 8.070955364040508 8.446100882661812
Li 7.4958555152747675 10.847443964767539 10.193098236904905
