14
Energy = -16.6337634 eV
Li 8.478480215131917 10.364953348210763 12.570084550936501
Li 11.366869575636848 9.6226332669542 11.981166176174252
Li 9.274531729352292 7.44978755928823 12.408469657488276
Li 12.850575996693944 12.045545251705839 10.489637534566969
Li 9.652294051326225 12.327411332870614 10.53356929323905
Li 6.74508689243364 11.416094879725794 10.350947485188701
Li 6.3888551732812315 8.550066911259067 11.658464586507755
Li 11.08122756712151 10.360275619055859 9.41156510824802
Li 13.523693616864213 9.519432503254317 8.829329951082348
Li 8.70583084458631 9.20349605618407 10.119046634231054
Li 11.304521312417592 7.574477536581862 9.941855901467592
Li 11.821741526856865 12.088646059830078 7.56308735660127
Li 8.814892386682272 11.329627302825983 7.964164435806304
Li 10.949169616953522 9.105322877591128 7.136381833800003
