17
Energy = -24.13081302 eV
Li 13.614286675006936 10.162060636970228 8.122619145057728
Li 11.248517700622097 7.9410017630013385 7.743257322608163
Li 11.51747349353278 9.715873426574653 9.766041270760054
Li 13.280219970927128 7.737820280658867 10.28429097377643
Li 11.449513291275526 9.274078413187087 12.641449970462977
Li 11.929781412704621 12.320947136228474 12.758043228426663
Li 9.194987830579107 11.442815369831312 13.839636219843767
Li 9.828023307165848 11.235619411017234 11.218303617108177
Li 13.801259386394534 10.639015823728672 11.15363979783887
Li 11.90599533413022 12.597209678509273 9.683304911816423
Li 10.256350519745963 7.320118032697559 10.571279627977045
Li 8.399889390333527 8.99542313331227 12.179299736361385
Li 9.513344828832993 13.879082336908683 11.685725609145791
Li 10.75936838088724 10.94619080128621 7.335524535113344
Li 7.155225375469707 11.655389179932655 11.28033570087826
Li 8.670936225122512 9.556135834950869 9.145119953308829
Li 8.90493714087214 12.635215731589655 8.951177391658572
