14
Energy = -18.6794647 eV
Li 12.30514834861509 11.459689539313635 12.053310813023042
Li 10.164333317846314 13.45376348420671 10.751417421351308
Li 9.341857199630702 11.699930349294807 12.995908951884084
Li 14.076672459203783 10.286474135526667 9.578907097616268
Li 10.192464882950025 10.434428686599091 10.475069383667048
Li 12.08068614610917 12.150650156260395 9.059438580866557
Li 12.387059206802439 8.56653833986964 10.969896636531665
Li 9.464338472493168 11.879206445470821 7.898429214574358
Li 10.541675439385417 8.996780476267181 13.132328038653833
Li 8.258516085735417 9.260216780184715 8.580904469018018
Li 9.844191111045525 7.421178095494219 10.280077551246487
Li 11.342862575607734 9.285155416811758 8.151618964780168
Li 7.952786844012885 9.174475793793542 11.717995125920035
Li 7.725076212671995 11.850833576527426 10.286545829351242
