16
Energy = -21.56339793 eV
Li 11.0464850110257 9.094155466448395 6.419326312123428
Li 10.936785000611877 6.869900787567289 8.50226635471899
Li 11.957194309170939 9.493841423185064 9.285468108612248
Li 12.972067242168063 7.235974751997482 10.882021544196462
Li 10.472799161644273 11.75394653761087 8.089067423640401
Li 9.076446353726181 9.161579671995332 8.488932138017386
Li 7.902652794312721 6.637189930508536 9.270257570882283
Li 12.276254249958715 12.321184515881914 10.539306723868542
Li 11.987363883456311 9.845716716332253 12.251947911665743
Li 10.04242888643689 7.957848632967838 11.00275013133658
Li 9.734195972394366 11.036274785516017 10.745417369510474
Li 7.336587001979783 9.327415931332514 10.857292356128996
Li 7.574995329670571 11.760757826231037 8.995291342076134
Li 9.557021869529754 13.730640307514017 10.339841031296105
Li 10.415568378433862 12.3930432169072 13.066030036213629
Li 7.487644712179362 12.157019654702893 12.041273802411256
