17
Energy = -24.01534156 eV
Li 8.563615958938561 8.155699528395084 10.246674322513892
Li 10.78248214201178 7.701934382166484 12.430862871287443
Li 11.355917417631309 7.058202393134688 9.3964692671407
Li 8.970635934497436 10.12437252371087 12.594806827403392
Li 11.905116978111263 10.559842907503478 13.025145726696215
Li 13.478817371724837 8.566175286613872 11.22902664616655
Li 12.99662977609878 9.541027230269833 8.290732178126659
Li 8.359682985917622 11.061326368883549 9.440588683803838
Li 11.000317469286722 9.5662956338085 10.296370657493103
Li 7.6175296773038825 12.685753166065927 11.895359775370153
Li 9.979838778331068 9.269106621482791 7.662030085209844
Li 13.207217196980274 11.523457274308589 10.591035184997567
Li 10.192968593018065 13.078364599135472 13.604744698633262
Li 11.186250767569494 12.0769042466563 8.478154386059732
Li 10.281816596981725 12.103329115487602 11.141888773552486
Li 11.943398921940162 14.20183332818656 11.090947251020724
Li 9.171616911998893 14.097115477933196 9.659968024436544
