15
Energy = -19.7314471 eV
Li 9.57387722683871 8.343536263385623 10.839599256225728
Li 12.61436259005516 8.480611528801957 10.633057637429845
Li 6.528200973659546 8.485893840979848 10.629483803241047
Li 11.055081428973974 11.024468376245885 10.53097588354136
Li 8.090145770462788 11.027436300243446 10.526186565096332
Li 9.571023900248358 13.61993867982779 10.84690256359887
Li 11.11839618135758 5.869129221277771 10.949374418533328
Li 8.020900210864617 5.8692957828379075 10.949586053790046
Li 9.57184976141843 10.160848714827301 8.16092977705847
Li 12.530980173570049 10.082110479465648 8.000703532192391
Li 6.614189117422195 10.082661919583867 7.995228559025315
Li 11.065712539343476 12.776664457467469 8.30366846498789
Li 8.074675373507244 12.779395126044982 8.301068589579822
Li 11.094366025911246 7.486536806883251 8.455704667136837
Li 8.050860999187421 7.486095229306201 8.452152955742097
