18
Energy = -25.54282588 eV
Li 10.43685274978542 12.526314317470073 13.126136897726226
Li 13.30487322324424 9.930912463067147 8.410187432459672
Li 9.905700288718952 10.735674879353603 11.153802866220381
Li 7.8561081291283505 10.77100548830072 9.386792285825976
Li 14.865964134832572 10.128571088595079 11.092741192903029
Li 8.83225204260303 13.349499223666488 10.67539340444268
Li 12.047369627505486 8.667656399073797 11.463947806477155
Li 10.47939853595735 9.180057505516366 8.926106010012479
Li 8.741766251281472 8.306211903165366 11.367027464870674
Li 14.227410561688087 13.00657074753749 12.129384335168135
Li 12.827628977296769 10.895464116950912 13.480311965050927
Li 12.527527710013704 13.896593417333781 14.50735502117005
Li 7.659726997535844 11.119678570710406 12.589813679974451
Li 12.481805259499938 11.316515735884678 10.676906132519893
Li 11.754339504898464 14.06630483280582 11.070718529265951
Li 13.922998034006216 12.884791459801463 9.019230979961266
Li 10.818185958656606 12.197216437809773 8.657389965266997
Li 10.152287314444239 9.57501525941173 13.759352008287658
