27
Energy = -39.73326025 eV
Li 6.646498003943687 10.722579491570098 12.604179640499181
Li 6.805586392808058 13.193521393010252 10.841431991738938
Li 6.9524894994517625 10.32808542127514 9.484466782288186
Li 8.796972806378944 12.727024229836976 13.579591566149217
Li 8.982232147291686 9.884006441569397 14.533865557616291
Li 8.718222506410651 8.735123487643396 11.579510017704004
Li 8.894049921892643 11.42830775388965 11.109718235559098
Li 9.27110195693203 12.345782657854889 8.512584924247635
Li 9.612389205417177 14.336431094788967 11.165357316721213
Li 11.432743031365696 11.967068385647899 15.038125660582162
Li 11.000628389525964 14.784989100313988 13.903100486067288
Li 9.966715951466686 9.27752408789818 8.784478869520834
Li 10.958086703557592 10.444423932169297 12.782499273854034
Li 11.80377775119503 12.888368274322666 12.066794623821732
Li 13.093311801141548 15.31450075923633 11.72378347415775
Li 14.10822160601658 12.864107617468116 13.51081762107747
Li 11.884851326106112 13.822192821627386 9.303747999614576
Li 13.600272779792212 9.815447005083081 13.944137737124512
Li 11.448319257563085 11.04387777562169 9.99082271707964
Li 11.848171620882109 8.250511212139935 11.498997486553597
Li 13.773506852169508 10.585369875469533 11.329526874217208
Li 14.58291147111087 13.00467773199485 10.41407934059154
Li 16.283613813733382 11.025446749487436 12.413846812474574
Li 13.06917135607098 11.465732792465413 7.855756299041324
Li 15.09278316691489 8.248038517517662 11.503273192408974
Li 13.2144418624941 8.797022547583113 9.011492180124403
Li 15.77339569668073 10.351975347417486 9.344434229971561
