24
Energy = -34.96725536 eV
Li 13.931017886103001 16.85729676875342 11.176142794662507
Li 10.947576488573592 15.949727673099222 12.34067313246779
Li 14.486915206864278 13.923902420566602 9.381771431944843
Li 12.958458644777858 14.4773943039699 11.571993636229239
Li 15.60018313181975 14.373837117959622 12.356656809445317
Li 13.686326316517205 11.766393187363756 11.248207990792043
Li 13.59263370617903 15.529861247899793 14.308683752533037
Li 11.571402769720507 15.60544058289891 9.220787063796706
Li 16.116888399828078 11.443172659151202 12.622427069314268
Li 15.856825928008858 13.089196917870165 15.189519222166778
Li 13.433022243384308 12.835486020561332 13.854473272071363
Li 11.569742317725218 12.891365307653356 9.626058662547575
Li 10.975606574877494 12.867093044462948 12.370034473052138
Li 14.347204336000422 9.086428953403002 11.279514260950481
Li 13.222774429078392 12.862980075109336 16.570988425067167
Li 9.75526086783172 13.04682743994107 7.58797380498198
Li 14.032519025360575 10.308144009130814 14.34681635839937
Li 10.801940529623186 14.148747805975809 14.818118430151717
Li 12.27897657305823 10.307981609296975 9.04951872730453
Li 9.139159445673885 14.12510293904042 10.399638170254507
Li 11.628567058981442 10.18882675275011 12.082679064544461
Li 9.42440606208431 11.243251368401237 10.118379123749163
Li 8.558358591596328 12.288270241790235 13.107292933917119
Li 11.062865754394178 11.277991062358838 14.817174308650142
