26
Energy = -38.35113071 eV
Li 13.197029399324126 8.746376527800507 15.351222092884322
Li 13.144242020607894 11.75725761418456 14.42657213620446
Li 10.129673344848992 12.632463982431373 13.820529315707581
Li 14.685725607436648 12.452269752106643 11.789379222720122
Li 10.954179295517562 9.774994246549621 13.77403060866463
Li 13.689805229008659 9.544516131102547 12.489764265006743
Li 11.997547387041612 7.2379923062951566 12.862869177365207
Li 7.920894253783076 10.359879997133204 13.866897359502374
Li 11.990439049790428 11.876343010074871 11.746298278625527
Li 9.830929166223209 13.690538933048515 10.86485355405532
Li 8.93287679463937 8.154464641771602 12.019982767331266
Li 12.459466026918623 14.382023755070348 12.64106434910967
Li 11.315028572875157 9.165699155759258 10.695473844845822
Li 6.547707267874689 9.942967659804616 10.896805784737039
Li 13.48766209609833 10.631262901947904 9.502984051423711
Li 9.252572768977789 10.91033778678705 11.542956177207653
Li 7.773047768654872 12.03892804491186 9.076736395760085
Li 13.471706838129654 7.583185430816853 9.995918253874857
Li 11.550097640416924 9.06452381789255 7.785431480551064
Li 9.868998736239977 13.85065059711068 7.670594979527307
Li 8.678567228698126 9.27122178708089 9.061754819565374
Li 12.639081660781684 13.616703887955701 9.510730552593955
Li 6.167184219154891 10.00542126015726 7.6581844479784245
Li 12.108459789196923 11.961707487648875 6.769675718842581
Li 10.654128048501573 11.549926036132558 9.022824889809685
Li 9.093643709328997 11.063767687650053 6.621851064499995
