24
Energy = -34.80954097 eV
Li 8.53089637136657 12.98784448431334 10.95034286825371
Li 11.574936240215854 14.815285961221756 14.87452388717251
Li 11.815549597773968 11.861601604773435 14.705400076223796
Li 12.267935456247658 9.256142796805516 13.204590182003058
Li 11.036235781306194 13.526757383769679 12.25359087310294
Li 13.55444440800663 14.431078713820291 10.6539706863108
Li 15.635402780095207 12.46777337265884 11.592203624681696
Li 9.704143885786925 15.738423635096478 11.900712803336614
Li 13.799620316197466 13.802751194703045 13.471344975448924
Li 13.71025954731336 12.078942071548806 9.021299930452422
Li 16.42544485208469 13.325806133412428 14.748530010525123
Li 14.608396074324023 10.946470313707582 14.12269492339831
Li 13.959869040993526 13.133547981566952 16.36599388696927
Li 12.928817385713499 11.664611416849798 11.843404377849318
Li 12.738481625548852 16.29377050370269 12.597960854104569
Li 8.924607607368085 13.466086905828199 14.085500697789449
Li 15.811592061154744 15.470375872000595 12.435121092831562
Li 9.842574170383358 10.972565820362984 12.738573602884209
Li 14.277913995231147 9.630122930567154 10.847149284176961
Li 11.034909826883764 10.982417787847757 10.013117180072125
Li 14.70496643491378 15.776961088350983 15.299429186937873
Li 16.48115292790755 14.232970277190326 17.504849904276533
Li 16.026679809533547 11.223622350025494 16.909636055962455
Li 10.979646199221262 13.949143181845193 9.44465541530491
