23
Energy = -33.43518491 eV
Li 8.409312702350949 10.346130154207318 7.520526523176377
Li 9.00236671203325 13.244311927164256 8.520244794725157
Li 11.199652807737715 11.499222550317443 7.054286567524752
Li 6.2845347839499 10.854951378888092 9.821185554095335
Li 12.0495214681009 14.04880460948338 8.546677837597588
Li 10.013985948526516 7.7039605696559965 6.923532711165706
Li 8.254419270722948 8.240164728762167 9.689493702857533
Li 7.594611380811512 12.975012676361398 11.648252115905564
Li 11.449371989596111 11.757394709891669 10.092471128332221
Li 13.777996020037214 11.241079698321723 8.986411159818353
Li 10.788506058249368 9.423461393068077 8.827829339106811
Li 13.163821350974724 13.331399272782011 11.476850067344985
Li 10.29676166604057 14.26790824535434 10.92688124364444
Li 13.068007346156477 8.367006079667128 9.905364401839806
Li 10.556339618446309 8.976000485138284 11.534862596420902
Li 10.656731996032168 6.489137825428908 9.923661000360186
Li 8.905521573692821 11.057925342531135 10.288818033751328
Li 7.908115101530959 9.840842879596407 12.534367930698547
Li 12.941386261577165 10.285484010162634 12.170099683912662
Li 9.134166716879792 6.804734328932481 12.527621188126252
Li 10.365242819385779 11.772792187868523 12.762463388877956
Li 12.141976420126372 6.95964659895664 12.578554371568488
Li 10.570093146269437 9.020252794016988 14.272206579374776
