25
Energy = -36.84981268 eV
Li 10.824364236720028 9.64475933291737 7.639238921450169
Li 12.304723179178708 7.2131459740278325 8.928288463289515
Li 9.14079514683921 10.854083510070241 9.75320402171926
Li 11.627575760698102 14.605232188897102 7.976802368159377
Li 12.466482106814917 12.025757316859082 6.46571899802189
Li 13.739064870228903 10.002061161336961 8.542397981572584
Li 6.844698699012706 9.360491838034601 10.644583482294369
Li 11.671915876745784 9.458547761807857 10.468504685711563
Li 11.14864528386943 6.997124958250762 11.864197711066621
Li 8.003373812954777 6.8447163761910215 12.183709105639265
Li 11.759261919655158 12.137321053041015 9.194943982512013
Li 7.704574407705424 9.752690463089866 7.623473128903483
Li 9.706559352232853 7.836113885627114 14.578933739980986
Li 9.328077818699615 9.325480352368277 12.297759767266134
Li 9.44526331429091 12.375455820491347 7.3292807923930985
Li 12.111677022874819 9.535674723919733 13.399592615380282
Li 14.283316006362583 13.13732079550477 8.726034182937537
Li 7.046256291353059 9.29252892134666 13.827692697633669
Li 13.731876766600573 11.400886987140723 11.330196989693887
Li 9.321961650195101 7.908368967243902 9.56591484684931
Li 9.561741435062848 10.929168174151341 14.589002894121245
Li 9.42795109626497 13.781918333792783 10.113660200180593
Li 12.419611866062738 14.221797566464993 10.950083678410882
Li 7.8008211368881675 11.899203117255977 12.180951258600984
Li 10.817725547693946 11.868590418019894 11.98749370248202
