24
Energy = -35.22756283 eV
Li 13.073310952223842 13.830562808806672 6.950513654312034
Li 15.98019988856617 10.717503951895514 12.816023703381166
Li 13.80907711608512 12.617295457669448 9.46756619051479
Li 11.365746802175744 11.212247553598287 10.87918658502896
Li 10.568999486936347 9.552827239698797 15.544304062797256
Li 10.743434490406282 8.74239376316239 10.01012014984552
Li 13.934803323357155 13.246711249723994 14.431898124791882
Li 13.606370817591104 10.316066094052081 15.08297810347944
Li 12.224261600011388 9.050159300143784 12.780481976598045
Li 9.312038251581656 10.111679383628877 12.577118885366366
Li 8.861369769419408 12.1120118416065 15.038836745586169
Li 15.37963283580909 13.694024777076498 11.661117992853303
Li 10.89139854939201 14.498509447635698 14.349407595949565
Li 11.807727214339545 11.093179985236517 8.031363280522084
Li 13.62116452422781 11.563627453580619 12.278306972329265
Li 13.37887619738796 15.465259788286446 9.587455365025125
Li 12.366539708415619 13.927683075637244 11.900783723201977
Li 11.55178287215562 12.170122106078935 16.588945111196715
Li 11.332186276727471 11.697307357124707 13.921323676724418
Li 10.602630661145037 15.984859197438743 11.329532119913404
Li 13.856258116612759 9.678022446507534 10.244061233673058
Li 8.961209734498674 11.293542647326875 9.619750772375406
Li 11.074879871832485 13.7389830498841 9.223594144974024
Li 9.578794832954678 13.183798590944237 12.006694605393102
