28
Energy = -41.08221476 eV
Li 8.524685094898393 13.344561945723548 7.499931063602836
Li 10.821137571597989 11.314849871143506 6.643018565950975
Li 7.937559070198196 10.382125259394005 8.04007850044864
Li 11.239106334569252 14.191937151786357 8.247978563718812
Li 8.015498753603044 7.209151819673139 9.65707773387885
Li 7.06904979908564 12.558708543588946 9.98502815923652
Li 9.170764359642218 14.234340273321259 10.562607906258878
Li 9.769706102502093 8.364187651923793 7.291273834383888
Li 10.176218552471871 11.711398036722025 9.26590363948238
Li 13.265617834053375 11.99760074194513 8.626222429149646
Li 12.368731958491876 9.143625418525623 8.34302431893353
Li 7.39743110898237 9.9057706658558 10.805104836008743
Li 11.020949298075188 6.331532687872753 9.062052398490136
Li 10.137527149590177 8.86854091554745 10.288905550514095
Li 7.317002283405113 12.1520891132752 12.99140798516148
Li 9.758952938403297 11.334698934626331 12.039449008307711
Li 11.963622646046032 13.444641205523176 11.117603455428752
Li 12.512112989965344 10.545375598445215 10.983006106426558
Li 14.965612238195783 9.611658027636325 9.86743019966491
Li 9.890099643594635 13.77125092719308 13.472478949016223
Li 8.387655538653416 8.774451127459505 13.13261660040284
Li 10.08031123648822 6.543185190142662 11.92043160214142
Li 14.705945935847403 12.256894309367839 11.442418135027342
Li 12.875128111407424 7.621467191796622 11.007417879034488
Li 9.58867250160634 11.006733472761486 14.849370843574286
Li 12.36658122688179 11.850031700534183 13.647142954334527
Li 11.338369367175806 8.999602103062884 13.247922123193316
Li 14.360972222476558 9.551568583933149 12.88816476070406
