26
Energy = -38.49447004 eV
Li 9.844348601416552 11.33455753551747 16.39484520588235
Li 12.943216971532998 10.71785152871006 16.641898297755045
Li 11.977324112947146 13.329764456875859 15.301889484657746
Li 8.673052717499377 10.021429609882773 13.68564979689104
Li 9.498147020384764 12.922093967425866 13.650356809312163
Li 14.288796218397117 11.652813523948856 13.947111470103094
Li 15.535034193238353 9.655152204863425 11.804749469547232
Li 13.482871664024124 8.812687535655465 14.248518380957258
Li 11.008027717076935 8.385019961339431 12.344293474694213
Li 12.111740559134702 13.07597453078975 12.302032145246535
Li 11.477508622724157 10.777372564918315 14.229957424397412
Li 11.059086755073363 15.522397736158373 12.960846411567427
Li 7.5813459908122205 11.893815246934698 11.373001443679055
Li 9.875771697744069 13.881886294286408 10.601815410719906
Li 12.064431991780083 12.2212988606167 9.374307759279098
Li 10.164657762396564 11.031802312864029 11.425900493957265
Li 12.941421805893311 10.408889863337308 11.66351124023132
Li 9.27876931436091 11.574147786564332 8.627452525379649
Li 14.708875980291628 12.55731249244174 10.882390385304623
Li 12.640217017944007 14.94474274875653 10.103953840749128
Li 14.017850493751782 13.232624075276583 7.737962949818451
Li 14.20441609312869 10.397201214964367 8.900172798547429
Li 8.434695134644876 9.102762774143413 10.54269904271924
Li 10.971477007341983 14.041555275322478 7.555432727973348
Li 11.328405298134353 9.345591548303066 9.313912671372877
Li 11.927464014976835 11.20308521215626 6.809468012698643
