25
Energy = -36.98858036 eV
Li 8.716370954416952 12.301642009263514 8.40195739002891
Li 11.889524924066718 12.3318756923021 8.284702842693875
Li 13.147781530823966 9.465263832972255 8.295824162125722
Li 10.59045113527029 14.82283397901134 9.44506792036759
Li 10.179371511366064 9.684558891284157 9.193117458111745
Li 13.60590898749066 15.061495034977447 8.882731807812016
Li 7.705657314992349 10.47987239112067 10.895086495193642
Li 12.617891020035419 13.38580831398284 10.760530043398395
Li 10.078487053582112 12.153051063307391 10.804111609165318
Li 8.71806777541417 7.438133404276631 11.00401253497714
Li 14.814800548478404 9.240717918372333 10.887946807334473
Li 14.749548167328912 12.246292838270875 9.431969518438706
Li 7.79010196795296 8.746155184229249 13.602213178355683
Li 14.497055007141366 11.979759718760754 12.476157784013504
Li 7.960236088781304 13.731876352202924 11.055341723440298
Li 12.520745562455875 10.563313785373408 10.747102569464019
Li 10.10312009788055 9.491658989804128 12.298611609418703
Li 10.712334162746396 14.557552383002381 12.509685666010773
Li 13.981070593727788 15.164961652294105 12.048063214380685
Li 12.861612533113295 9.184525551839538 13.296868484323664
Li 11.940499463366276 7.7220114888178095 10.780565956909443
Li 11.734467863188907 11.956220144764199 13.288002096897145
Li 8.767058438370597 11.888431629235743 13.399679552453774
Li 10.37953982538151 7.051065115075387 13.534121521634786
Li 10.339396857734815 9.752022020566457 15.077627438158538
