25
Energy = -36.08724604 eV
Li 10.071681567113435 8.473511811816147 8.978447708263836
Li 12.624579055627008 13.172457611193874 7.4746042779576705
Li 10.411112597773279 11.081318569026825 7.386876953184272
Li 9.173927287956943 10.940519318373843 10.249859456092322
Li 10.903130924477347 15.320332951726906 9.307506025337025
Li 8.908053674778603 13.39773667860883 8.297149157315102
Li 12.66441634215518 10.231856980452468 8.978818243897853
Li 15.04943437867643 11.797685877988867 9.10088962410218
Li 11.288719973416997 12.622292842515327 9.818753210537023
Li 8.326424595665404 8.507493201411753 11.55762883676874
Li 13.754673944253026 14.377418362096089 10.011365112524999
Li 11.409107146689001 9.328960184162497 11.427141031709024
Li 13.420295931417847 11.875241472645335 11.56110828293286
Li 10.580808548190872 6.581554312901017 11.368115315745712
Li 11.593036237405224 14.515871439529038 12.110397216063689
Li 10.784634608364701 11.767866307742283 12.769454215997687
Li 12.777244776881362 12.997733036717872 14.388361698335597
Li 14.46220505592258 9.211277552509285 11.216733964565524
Li 8.890684817089516 13.708553401309759 11.34113648899905
Li 8.23220385991223 11.002990138920572 13.398865349156278
Li 12.97604370879745 10.035998437693085 13.896891699370684
Li 12.87925210044038 7.256230703608866 13.08567386547038
Li 10.168425022517086 8.547366522329217 13.871378193459837
Li 9.59609924975415 13.690980808147994 14.385763329697392
Li 10.53968599254382 11.042632874391924 15.50296214033481
