25
Energy = -36.35742783 eV
Li 6.103941083910208 11.0328079368545 12.982290843970569
Li 7.5019969930149975 8.407007874792582 13.71755630594707
Li 6.279309415155229 8.853200703629597 10.810854497712555
Li 8.88301567032456 7.473102054614894 11.18570418146356
Li 6.8250926487387105 11.657448018102086 9.87105375186682
Li 8.113561145012683 13.089704091182714 12.276367543681282
Li 8.483851575739417 10.296990213552842 11.794443617450783
Li 9.122526373208647 9.569349873876673 9.113851411382553
Li 10.640934761605948 8.353913746192088 13.322865987065393
Li 9.269481058947404 10.939127138720545 14.36945214445169
Li 11.355421985691628 10.227270040345973 11.368834370554783
Li 11.559874643872744 7.882462097367254 10.006787802836392
Li 11.349955208401733 8.66315513137801 7.161793914585469
Li 9.719210213006596 12.446009464588517 9.72803142047292
Li 9.787826347193828 11.282869116220875 6.743164882498095
Li 13.588232882489669 8.432470002168523 12.045387045802181
Li 11.94643348384799 11.044353537636008 8.632516919242125
Li 11.020781541177262 12.63854573477113 12.57074226947037
Li 12.503572537986173 10.585227272812658 14.045709314813351
Li 14.022045255889303 9.237237061607098 8.895359709978335
Li 12.444710934901334 13.50650881171998 10.13123111669529
Li 12.937873416743143 10.908542748140855 6.057501839808028
Li 13.939861713420395 11.284905230480826 11.241437544727585
Li 11.759676467322809 13.490619110877489 7.240502720793238
Li 14.51765489317039 12.28466750146131 8.297246939834691
