23
Energy = -33.23323823 eV
Li 7.513951538922336 11.07779548476293 10.634939244596234
Li 6.822065764932024 9.82028882123645 13.565188627761037
Li 8.261496783950225 12.583852792748203 13.272760174188202
Li 7.919100852312564 8.036000937582166 11.239824071882488
Li 10.14659250189229 12.345372827491198 10.979161499765416
Li 9.167563979958647 12.040809107338866 8.213078072595543
Li 9.948711485049634 9.649119291346306 9.762499590710743
Li 9.162787177603493 10.486446379770006 15.424564859840942
Li 9.453732638364825 9.998457545679646 12.70566650444129
Li 11.327666298725736 12.160570069060848 13.679754223440664
Li 8.951955509486417 7.698527858619031 14.177431298752756
Li 12.094796340708657 11.542856735517967 8.846373753036515
Li 10.873072404306324 9.76266225341411 6.919485743422371
Li 11.188073018156821 14.295465068606985 8.983582052843474
Li 11.76108786478776 12.708235320593642 6.3448441383427205
Li 11.739057055071235 9.122691822635408 14.267790506147566
Li 12.974244451935984 13.12611602466384 11.268542734817661
Li 13.89326066243475 10.590810296725659 6.957954623339769
Li 10.994688319971086 7.614531720407555 11.632420570328188
Li 12.648516185066121 8.582245759832007 9.209634700207229
Li 12.209638304216819 10.296180999300285 11.569142837072091
Li 14.085251149431718 13.371246628858634 8.227011958076623
Li 14.670650042506114 10.839295557973108 9.980573814554765
