28
Energy = -41.82820705 eV
Li 11.6041115552311 15.182236225992616 16.640115532154223
Li 13.50506230530924 13.336517877974732 11.205239771690364
Li 13.131589776787772 10.595004884328988 10.793622051721497
Li 16.065304342555496 11.568463389582773 15.313631037544683
Li 11.833709638799014 12.87680532072704 9.12719208303092
Li 16.847565911193755 16.745316029884556 17.080785688809947
Li 14.956596107738765 12.4377166531662 9.066853465376301
Li 10.96462938474545 12.326485320984203 12.162806247523708
Li 16.707575993670243 16.239275402739693 13.8832821911801
Li 16.290122282855265 14.497176936891536 11.098955066279952
Li 15.909602504916199 11.556271807103824 12.020405376492805
Li 15.497935394204436 12.413641799386411 18.202849532719316
Li 13.39532706705415 11.49712628589486 13.745642844092986
Li 11.011203445686334 12.256449471200822 15.547615860541478
Li 12.340468649595465 12.782991321790055 18.537756286735036
Li 18.279832054327073 13.584049517081706 17.150392825849153
Li 14.350153053542348 15.24358223128155 18.223996815633388
Li 15.101811252200992 13.798313902108031 13.555746535349869
Li 11.468911756540699 17.034146798334938 13.88283923521841
Li 12.306278644045078 14.37071001480898 13.835843144085532
Li 11.313731829050802 15.238296400702682 11.136755164330783
Li 13.394211702234955 10.493407442355707 16.68545790738342
Li 13.574968970533765 13.190565979184571 16.17912071921394
Li 16.069528551309904 14.385145663865686 16.030321339527514
Li 13.98293263653819 16.19515696424892 12.241335512784275
Li 14.089827357644443 16.269906932142842 15.356708117879663
Li 13.8061948580107 15.304938759587824 9.25248335697047
Li 17.899913745257766 13.380779857212064 13.833949397347565
