29
Energy = -41.32277097 eV
Li 13.105911365936274 15.19133436845674 7.87019085708773
Li 12.596248395314538 12.267771732608725 7.689934928541177
Li 10.334024117960906 14.121589746003137 8.022876010592155
Li 11.861245275810708 9.56356830164228 7.868236729535532
Li 14.413771056839767 13.35481449435988 9.81620309837491
Li 11.870585247623557 14.575427600878632 10.529281352788896
Li 13.380516645565024 10.633812231120388 10.018718996938214
Li 9.626854123225446 11.26561019901125 7.107986483925181
Li 10.681072149579562 11.813628526431058 9.900736912264959
Li 12.222246211480508 7.90354110193865 10.27399748291096
Li 7.877586463503955 13.05894921961703 8.9991811787126
Li 15.436503863060201 11.635522848237553 11.803394502866015
Li 12.633678090124784 12.331239971170554 12.224110034372446
Li 9.539588871820223 9.09643587788226 9.35008390876383
Li 7.114539277700083 10.35606093602656 8.514462430447649
Li 9.161315136125024 13.97685672706655 11.317224606256952
Li 10.94154474095948 9.864264591113722 11.972757149093864
Li 11.139088053333781 14.519498134139234 13.38435000507851
Li 9.526422187022165 7.255598897480284 11.495494358849449
Li 13.799481183768544 9.22729777821928 12.396083890790798
Li 6.9160861237455995 8.43087755812125 10.736455065635848
Li 11.994763752488666 12.208354099494017 15.038840489964613
Li 11.76940947024194 7.319285045889955 13.186839939673984
Li 8.121830428317844 11.14227433507175 11.174145124551938
Li 9.680488441429814 12.010901742777259 13.395704778844616
Li 14.562822130780148 11.212168683843519 14.448689160134752
Li 13.110441667709594 8.85901412069725 15.271611189029123
Li 8.295328152562567 9.311438553526783 13.347121104637157
Li 10.436729438221821 9.743327166244008 15.04930229678162
