23
Energy = -30.13802936 eV
Li 7.51854429013621 12.63555624654594 10.510825068467126
Li 6.812695765254618 11.476867387957144 7.9041173926928385
Li 7.6003374653201945 10.729995159347435 12.635995341271554
Li 8.139989340867452 9.835824646814048 9.973781126878556
Li 9.959087457148323 14.08228237646871 10.340499596980099
Li 9.828408649108168 10.282141662956349 14.206850291578872
Li 9.517648633726195 12.078268814559417 8.382720403212197
Li 9.253570574489927 8.298526313613761 12.141008285656826
Li 9.420522149029608 13.075580778545648 13.111824085616671
Li 8.843782548132303 9.458910020515694 7.246650287239666
Li 10.121469189275475 7.7903638015313685 9.44261418971332
Li 10.463335901632437 11.05568440775008 11.226035594171742
Li 11.278164467377243 6.306477328511974 11.613906262600166
Li 12.215068096507542 11.610268177329695 13.923355621959477
Li 11.541961552955456 9.96261278060421 8.146252664924514
Li 12.245839463735672 13.651699987775146 11.892570693837799
Li 11.975990548257837 8.768777044330474 12.912540468973399
Li 12.14902405983713 12.539963827464625 9.228488507579227
Li 12.90702524910017 8.248239582656403 10.200838096491442
Li 13.412916820618344 10.767332517372543 11.471765711785514
Li 14.759365132987835 12.819569506275668 13.24398457382353
Li 14.280054285112454 10.422124517208884 8.77653289040297
Li 14.698533620664808 13.049157176475159 10.303367535732594
