24
Energy = -30.41104496 eV
Li 14.873867687228815 8.282977513133387 11.33835025038141
Li 12.344584123964939 6.408018251049867 10.564433922367414
Li 15.1702049066605 10.778592624991907 9.856287380763074
Li 13.788655891045321 10.671668457973588 12.538441552719252
Li 12.657737776731837 9.235833321666489 9.931070524873796
Li 12.478625024005185 8.12075895834787 12.93051834553384
Li 13.881295529104385 13.141539449982824 10.930284361456486
Li 12.759282356816476 11.695988970775206 8.485877213449738
Li 10.133014799483052 8.631322729729815 11.321077994119154
Li 11.173327296230557 10.370138881465591 13.958821130615135
Li 12.462880495766374 12.88274630558368 13.488737110517441
Li 11.24873743289727 11.464897215379004 11.202693676239766
Li 11.217282317322129 14.032006754750213 9.591591626799753
Li 10.301848660091839 10.05849550139361 8.774573684679053
Li 11.817797694802499 12.539200130421781 16.29697126367585
Li 12.291054097309528 15.308585388205994 11.966590097191947
Li 7.8694966160279085 10.985849309946706 7.553440116170579
Li 10.185747253718977 12.593213708703704 7.364400100436793
Li 9.415233606553132 12.526899876208164 14.643333416270258
Li 8.56327990340202 11.062300837628362 12.391564895378153
Li 7.678181656205483 9.640609613397201 10.092296835210771
Li 10.927507154563365 15.019158026217212 14.460520242471791
Li 9.698184987818726 13.78921928966906 12.085175290695304
Li 8.70382238387938 12.452659107253867 9.877078538571357
