29
Energy = -42.77354629 eV
Li 14.21307439812391 13.608437815821482 13.902457472561146
Li 13.989427599533526 16.00486431675581 11.963155472418421
Li 12.210925349767054 12.925213904610915 16.000121124951388
Li 15.115065272364273 13.031748690658603 11.127393252808902
Li 11.590358834625889 15.226584586661925 13.995574219106334
Li 13.385911742388018 14.699734095000924 9.279796461686592
Li 12.522478550826973 11.247043306832493 13.219940618266362
Li 10.997624852427215 16.227917492967062 10.825280649559307
Li 11.286291920245803 9.967666025089931 15.661212225460602
Li 12.36279402497044 13.814667770390136 11.743318404631415
Li 14.635871821817986 9.770323050237664 11.689362414908077
Li 10.088459969979333 12.37594482364962 14.184976907947096
Li 12.909083633360076 11.610344775053893 10.014462812475436
Li 12.670368197953692 8.123568154218285 13.534768439113888
Li 13.845388123318957 9.005160333689 8.78660508409074
Li 7.760406561321442 11.683946005245529 12.061017605600851
Li 12.00206985255724 8.980769112617889 10.971103479077188
Li 10.51946915039731 13.58747884625388 9.34105163109102
Li 13.63544265735291 6.780774334572028 10.928367334320079
Li 9.506636070615047 14.140753367201802 12.097416838999179
Li 10.362949432994414 11.47822392847232 11.18500946466107
Li 10.608285632028098 6.6772569061871465 11.877111494945572
Li 7.817028364791786 14.674044330345358 10.013883261164056
Li 10.864727496013847 10.225332993133938 8.444374419096793
Li 9.926116952217118 9.404404507684365 13.10939059423261
Li 11.162358932468955 7.291578771952829 8.880944601257161
Li 9.058385244225947 8.939132537065072 10.318965118699863
Li 8.26123925692402 11.487772170495894 9.012608428494497
Li 8.54084276896974 8.63990437585237 7.488301547929652
