20
Energy = -28.80087375 eV
Li 10.658294173393463 12.871803028563523 8.111739022730106
Li 10.870609382769633 10.046652836550598 9.323735394301522
Li 13.862603446010096 8.63058559128382 9.81791599911257
Li 12.897437954780008 14.68504540534764 9.33842704831372
Li 13.386332303816674 11.533468930223863 8.794743498985778
Li 11.535290021283517 12.791788642060824 10.799809926561213
Li 12.764981657673871 10.397402546883106 11.43300412636322
Li 8.751054032064738 12.053750639567738 10.408998378001748
Li 9.949745826692135 14.978528570613237 10.423869354008998
Li 11.115633572257776 7.936073995894642 11.459475979822702
Li 8.275304507401621 9.032391709863525 10.872106878622594
Li 9.847733448941138 13.266742302935373 13.110364995565545
Li 12.408475007218689 14.931065634815166 12.398248159233823
Li 14.433633270491567 12.757933176459135 11.36625202362959
Li 12.210227513932168 9.171280942503593 13.991680098753017
Li 7.51081191749827 11.117691110412727 13.072930704419186
Li 9.068837738925888 8.449366400617365 13.788054823047615
Li 12.62761106630126 12.090972161616952 13.659427619338453
Li 10.134250406812315 10.519967611428562 12.331372121139944
Li 14.99924212420601 10.045598134829753 12.805953220519728
