26
Energy = -37.72690107 eV
Li 7.702316178079884 14.151371712150542 12.214497911521127
Li 9.089550733617022 11.677881975872857 13.611255857711019
Li 7.657990335446905 11.248656989436729 11.08832807006713
Li 10.434526923217534 9.10183219213861 14.038565460978512
Li 12.00177626215124 11.514730843485308 15.46550650802084
Li 8.182405028052651 8.485611185835264 11.88254277670059
Li 10.516156830723249 14.180003833714665 13.744752337155244
Li 6.781086099413704 9.177902992284894 9.029845216895781
Li 13.492545367834357 14.047978189529587 14.22147127374472
Li 9.975208096311107 12.971678414355349 11.053886922226628
Li 14.814174754513802 11.519281105797294 13.909444870424961
Li 12.089997464006062 11.887866712381905 12.859939670150435
Li 8.970881837460585 11.229878792274018 8.518708541122102
Li 8.48532641586977 9.103268981108956 6.425256676253379
Li 9.565762338535967 8.54851959671054 9.133040259672084
Li 10.925281497730222 7.208070330874986 11.676484639512756
Li 10.459483761946322 10.054124657018805 11.385386153854972
Li 13.095059840887671 9.215515789592672 12.814701151356047
Li 11.877579724576613 11.781555995422586 9.397567760194484
Li 12.622434433454133 14.295615707406279 11.41226131566093
Li 15.481884304017315 13.97659598325188 11.814069030327529
Li 11.366575037088365 9.987856749620352 7.177510815799369
Li 14.168212602044658 11.564729496650553 10.937228332546578
Li 12.626534828822649 9.038517958974747 9.833765785663815
Li 14.283935420794416 10.827143835254994 8.03516522511151
Li 14.023726151528603 13.775325213838139 8.881326704446124
