24
Energy = -35.08609071 eV
Li 13.966408759676334 12.139424543184358 8.472149575054376
Li 12.07551660000314 10.265100892784211 16.042965846060955
Li 9.502488232950828 9.76503537315435 7.778994203931818
Li 10.139298881592918 13.331858787211196 14.467782400839623
Li 11.87784934175728 13.824049342795652 9.69518061290969
Li 12.483498016581773 14.462112072004746 12.707258055044047
Li 9.208356555137332 9.873056203674247 10.872342398676068
Li 11.966614861383826 9.618298040647568 12.219027513959704
Li 14.095482584977942 9.422790418445357 10.251872984624846
Li 10.639680038715916 12.26670235859575 11.898543437548039
Li 14.715933434783546 14.468985871302108 10.580959843547623
Li 11.285864481998766 7.96057580413499 9.790983296677327
Li 15.074542709344273 13.189322577423969 13.635355496846888
Li 9.77536784599229 10.398776956366298 13.891777559708656
Li 9.631945022634504 14.838512420663198 11.56244693734162
Li 14.80010419279222 11.46310399415715 16.11976199541148
Li 11.554028529241183 10.786581459506582 9.434815596123386
Li 9.149196855013505 12.493940715206037 9.342010352092696
Li 12.657132487069006 11.860096150216023 14.061192993606312
Li 11.094384715896963 12.319705776781996 7.040931424502483
Li 14.593858861270357 9.956056870065051 13.460556389754537
Li 13.54147465241464 12.00666948743689 11.326167549778715
Li 12.90806622166361 13.7061339945501 16.020308374901827
Li 7.947785324666571 12.379372369276945 12.328917781963222
