23
Energy = -32.88575992 eV
Li 9.342818353704901 11.153533139008008 5.031729904877312
Li 11.595698020659134 10.406756383355177 6.834195614423629
Li 8.837827604614208 9.940113492721355 7.681824942287582
Li 9.565963939519158 8.155791635057595 13.409161153900168
Li 7.975396381331893 11.937876917334846 10.07456606460163
Li 13.618603666224171 9.853478182595191 9.299510219928333
Li 9.822796326320194 12.654866696787776 7.592271758752432
Li 12.775745760906167 12.803832030460688 8.42925871581318
Li 8.646177154988449 8.732314608501246 10.489092545491134
Li 9.288866309535637 10.725942846631519 12.188654953176142
Li 9.272338128861279 13.404867159192895 13.265911897575934
Li 10.656550837558406 13.30645535657964 10.668571642625135
Li 9.342556583293192 10.794276626138956 14.983658074494041
Li 11.115149187761078 8.05142228170358 8.822043514800198
Li 10.875952493834461 10.804886477265905 9.677207908807661
Li 11.687316873732208 9.042250473057287 11.675005292490512
Li 11.611158356478068 11.686775280528327 13.103116677240333
Li 11.57432395253943 12.828756296549189 15.570051991969299
Li 12.429366523904385 14.361819229140643 12.86477678016783
Li 13.421115409095425 12.060025145934281 11.143776738809228
Li 14.372124994398082 9.64997615408897 12.350961785906726
Li 12.193882567666991 9.653338346760476 14.763135818317462
Li 14.20853442816621 12.095617651074233 14.136005845365109
