22
Energy = -31.89414926 eV
Li 13.714060321967386 8.240868356038627 13.144726913784856
Li 13.728421545497458 7.2390812098753425 10.261795442690698
Li 12.979198041778062 11.35658151229795 13.233947452939482
Li 10.78647977351418 9.410780175757111 13.797346630580709
Li 11.373215048088268 6.778946039459769 12.000223912274436
Li 12.066719473966664 9.367144620784684 11.190026319390823
Li 10.312722897301873 11.676861785339867 12.057151945063936
Li 11.76410866603188 14.152186084637085 12.366542879454064
Li 7.9452957229191075 10.997745457022804 13.355292190845539
Li 10.91171734593736 7.850899635774356 9.053278161049857
Li 9.09157279557461 9.075398940619817 11.227753331702734
Li 10.399015973413835 10.765472788100714 9.19113260648599
Li 13.146201448698706 14.877855318180382 9.622722010927648
Li 12.76116199612271 12.1161857479933 10.385755383868847
Li 10.355934269205026 12.497936746030764 14.638355510360546
Li 7.978139412047761 9.418808792366478 8.452285212065739
Li 13.218317209228 9.836574346894345 8.562883584741801
Li 8.670332373193691 13.96804881437856 12.445744717894623
Li 7.927658137253503 11.800118684960022 10.353713956882931
Li 10.328073943543577 13.747684240318033 9.811062879247755
Li 8.819824045416324 12.397320145798219 7.5253836767152436
Li 11.976836904972727 12.673406408167073 7.649652523804945
