24
Energy = -34.80920359 eV
Li 14.069585849804769 9.391334229014937 14.832183622905802
Li 13.661690549386297 10.691000827886024 12.24244115777685
Li 12.8348241739539 12.058793070995693 9.496133978947782
Li 12.115202477395744 11.96284016297045 14.452942626411492
Li 12.916078607450507 7.630854904621878 11.931337826611186
Li 13.719321024747746 9.09486096011613 9.275778196125074
Li 15.070464828495156 12.274953406453568 14.315613642427522
Li 11.379818699175868 9.356057697040882 13.611329568528843
Li 11.111243276337406 11.997890094720466 11.74826566378472
Li 11.148925979732553 9.927503199465457 7.711513534134722
Li 13.133412696362901 13.786016318351042 12.3037687139813
Li 11.066872684841117 7.2713110928582125 9.275774497617808
Li 11.047154621297674 12.969180179299187 6.9767572348584785
Li 8.973990981281217 10.6041571457566 12.609790040254483
Li 9.614850669790684 13.622692558569867 13.133352911520118
Li 11.36988197068481 9.587976006333172 10.639230546045757
Li 9.412078665284204 7.730903524925246 11.893240561673165
Li 8.251387199014678 11.188387121127311 7.217328979887258
Li 10.75183791749114 14.377992548281325 10.189009968770105
Li 7.753637911487612 12.274515187524248 10.66556640824435
Li 9.985221440857886 11.935198109136207 9.194850468042254
Li 6.50934003904376 9.349268935204524 11.65411037001406
Li 8.453871086109196 14.039299475047706 8.151064972721459
Li 8.676278146473495 9.475826218593289 9.727489746272456
