24
Energy = -29.89903568 eV
Li 11.491013660555005 7.724032956978598 6.583687241082197
Li 9.203407018917227 7.600051791833463 8.077608057188646
Li 7.3266398383861775 9.657019607725763 8.055737660474438
Li 10.480449584563576 10.293625319985514 8.080044454558317
Li 11.572803514764303 7.930622622969684 9.819469414291747
Li 13.302936917984075 9.37870707191815 7.730983730139324
Li 6.3772836433036675 10.111740675986903 10.734399018166359
Li 9.033482267130614 9.207259428894718 10.475064558386167
Li 8.3595173214281 11.979637521212574 9.343250987847565
Li 10.534446024195407 7.977936656803173 12.577123974918166
Li 7.8128195461150085 8.903040083191614 13.005608629729368
Li 13.291598749753664 7.2786611517493345 12.164230802907797
Li 12.99401932068124 11.94324759724807 8.661957876658711
Li 7.81304972029053 11.981607699878774 12.192124535806903
Li 11.070237204577781 11.275666788244171 10.764919936115236
Li 10.543937438185644 13.414123363866496 8.382998076676687
Li 13.812957979576316 9.597023816241734 10.525306414141065
Li 12.62980805369165 10.020413694843581 13.08799473679758
Li 9.747398609407725 13.91598605122734 11.201254133656805
Li 9.9016396546879 10.725850849957842 13.621893545594352
Li 13.780848995199415 12.226112711625529 11.499827753151473
Li 11.726459454848346 12.880417445414407 13.230727625509367
Li 12.415319903529431 14.451996762469607 10.32603749706109
Li 9.122350076610797 13.696088493207741 14.083346317230061
