27
Energy = -40.44495126 eV
Li 6.957565857515715 11.114197083990558 8.073502767928368
Li 9.980866914335396 10.24541300261514 7.888367520336901
Li 8.062171558173974 8.532072907812948 9.62194608471795
Li 6.029702553939672 10.505777499543571 10.960851664873116
Li 6.746954826504175 13.421811717511382 10.210295422540307
Li 9.263613315576482 13.25251023222563 8.34569599832355
Li 10.793667054436774 9.30198211617642 10.580192813243423
Li 8.531591418004252 11.326552068454694 10.3246728689867
Li 8.63134775607077 9.309073291738489 12.55624984966499
Li 12.194126022640557 12.32086245410372 7.265824495271425
Li 7.733280577929303 12.20575132337453 12.98876468665568
Li 10.161058214537091 6.7884343016006286 11.343002639020622
Li 9.651842506416513 13.966614563996677 11.341632064875732
Li 11.435393069851532 12.007695927199807 9.870800470051549
Li 13.05816732269571 9.733196369960591 8.7288052629035
Li 13.248643635437437 7.67215362370938 11.045564185464844
Li 9.846335928048626 10.934655596245374 15.072722510408225
Li 11.582746056392493 8.81860107968481 13.364742264000862
Li 11.992584803241634 14.64289798168646 9.454336674481347
Li 13.366372880257293 10.521672139660359 11.646227266231092
Li 10.614560718740787 11.45679675201038 12.556197302658413
Li 15.693156258563715 9.660598291796216 10.445467029035555
Li 14.328919397295705 12.401788475667164 9.71812591614552
Li 14.869742911431713 9.036903135395486 13.359576768216616
Li 12.99305443855167 11.326555496828405 14.42215108635308
Li 12.755447353138305 13.446882247322014 12.196624991099508
Li 15.521609191041748 11.968523576138718 12.584774579268666
