21
Energy = -30.56058345 eV
Li 12.444844693480942 7.189989716699509 11.531108952118654
Li 11.016335839837101 6.6411825816047285 8.730134595314487
Li 13.75584276372193 8.247230380567945 8.91167836618023
Li 8.832414549987282 8.723656494422817 8.425610746819297
Li 10.904230854482776 9.589035649794615 12.787858248940719
Li 13.644956675639895 10.134055570232755 11.475842340794568
Li 11.367042408844346 9.219733257189237 7.029689862045927
Li 9.363278665782852 7.533207118082677 11.172461850620662
Li 8.642579605363492 10.383289067376982 6.019741032030874
Li 11.387323485955697 9.221239336038563 9.951656790484309
Li 12.955142477793594 11.34203484337369 8.698403612063302
Li 8.789759949313032 10.373745604423872 10.952230475110687
Li 7.1364638488368275 11.108246112669484 8.66587710519238
Li 6.570936257868876 8.613689513504307 10.437554992863465
Li 10.032264679729725 11.458773530715515 8.396929292248723
Li 11.315014908014664 12.038561714174111 11.03670214055044
Li 7.8378152246887804 9.230113584723295 13.307446029908013
Li 11.372859696487273 14.043019616832549 8.89254667741479
Li 6.407728798427421 11.519174387206906 11.747457658374788
Li 8.718622599707265 13.228121995225777 10.339649056787094
Li 9.1804688956789 12.11624215197425 13.201351839113439
