28
Energy = -41.15981506 eV
Li 18.712991948267476 18.032389297112662 11.710325176322451
Li 14.686817152872806 13.663393462841363 10.897177983312496
Li 14.8987868811088 12.045015937646975 13.507728459854258
Li 12.430401518533579 11.781757146572417 11.761541010842018
Li 16.853140438279844 10.13216664043431 13.77162367555713
Li 12.185244738300092 11.928987686551368 14.752136730601956
Li 10.837221407543808 16.286393309386657 12.91469479099127
Li 13.40086512725425 9.553066906609402 13.524827202900099
Li 16.979587434699607 15.714423219472664 11.177967571103451
Li 15.28110464512725 10.654431444297819 11.14632711526638
Li 18.602328386657994 15.463310160698894 13.689723627390704
Li 15.848278071131904 14.823900637283764 13.602660770476941
Li 13.664173167810436 16.590466524193165 14.735653917206298
Li 10.217730676556636 13.476684692754564 13.116806909131553
Li 8.534523961104679 14.914226679973398 11.383156011868687
Li 13.0664660525492 14.365887939840382 13.129096315776668
Li 11.247936752147194 14.762283214299947 15.553686808927468
Li 10.252006043202034 10.429128771273884 13.223881641759018
Li 14.242584715111548 13.818423551916736 15.86229743198979
Li 11.665314608451968 14.522691528356425 10.57944449115261
Li 14.83605527221073 10.89309509447489 16.04283556179933
Li 16.433477683460975 17.52521348677457 13.495700897845913
Li 8.427924695362698 15.244141538069787 14.471115329643524
Li 17.23304470911068 12.910001542539185 15.226500178272524
Li 16.615189033632465 15.826468084949205 16.087634442183134
Li 17.44402715855408 12.757420443554281 12.222035476740338
Li 9.296536346370264 12.448386438966464 15.575030299508931
Li 13.968737135177362 16.541425275255797 11.615221413145985
