21
Energy = -30.55987173 eV
Li 12.582021417926562 9.4098823610809 7.428751103033454
Li 7.904435314674228 11.888854052089183 8.135548595778527
Li 9.463141600424036 14.199461529554544 9.694182778039423
Li 11.029165792276704 12.01079602483082 8.17806120206438
Li 7.122366961576957 9.625846599873892 10.239691067564047
Li 13.994184493592892 11.792763357539705 9.018418351851436
Li 9.647840941676089 9.31738835827929 8.502341139091792
Li 6.95869090992521 12.721917468655118 10.987691063874362
Li 11.641831891984332 7.221281047689142 9.546332191763284
Li 14.421431324255996 8.750501708563736 9.853521769106274
Li 9.348303097681288 11.431855911664897 10.474103860158943
Li 11.979662857523557 10.0321445807677 10.078127793102393
Li 9.708643464289564 8.588109853789293 11.449404143047257
Li 13.905950202342567 11.03648233976612 12.02768353270557
Li 11.928608784883977 12.927059617764662 10.934933413640577
Li 12.482782408140562 8.266841981710638 12.354869880864445
Li 12.532171158024664 13.227059322482816 13.789521556187225
Li 10.084072146946184 8.47142358724516 14.362719975644165
Li 8.181720373979042 10.56197999097756 13.0120217533289
Li 11.10207680807631 10.80957560548999 12.876884711817212
Li 9.604923597251041 13.332800247636728 12.679215664787613
