22
Energy = -31.84623557 eV
Li 8.699974227593176 14.042573856702333 13.873274437954588
Li 11.59937958219089 13.125745111381159 14.718017610211987
Li 10.128259541719615 9.993159311872505 11.089934371379547
Li 10.458084136084945 12.97750621565506 12.053025226616167
Li 9.467810730533271 10.970230627357907 14.07680754502165
Li 7.843812010903901 12.15148098127188 11.583629464275244
Li 13.16526749099206 11.11354199939252 8.203071887091998
Li 14.565413097972506 13.197318159932863 15.223374973421185
Li 12.042629559938492 10.83071822444278 13.04836086007981
Li 11.212833325426733 8.31523338204859 13.53659708383445
Li 16.486088660214943 13.001504570231983 12.631764369930606
Li 8.94949771042283 14.892616775051682 10.891166679089421
Li 12.599794519224979 11.802075175903294 10.600345631170173
Li 12.3843312038202 10.460233975237939 15.720974096943126
Li 13.633106178725802 13.353528823407435 12.557442771825345
Li 15.2836397195237 10.935946500663299 10.721962130870486
Li 11.5398192763578 15.471266351897079 12.946361890705738
Li 14.82744488568805 13.538092071978545 9.774817538585944
Li 14.704217384839403 10.753166401801272 13.591575445449603
Li 12.923077949379008 9.026463059483119 10.921767487802654
Li 10.068343232029163 12.344621438152389 9.236834879211546
Li 11.992984919270029 14.472929854519576 10.04590601326538
