27
Energy = -39.14803115 eV
Li 8.941814092956122 9.620149783378926 8.9726133309411
Li 7.082297276781314 11.315117346955844 10.542911934759434
Li 9.856608257826379 14.67614749714077 12.831689472646726
Li 9.583643841267394 6.629171156619094 9.703632062669572
Li 11.038012323775224 14.379852598572953 10.01600945542463
Li 13.806303596672693 9.572137611446099 7.462851378495584
Li 12.391547518435956 11.517912726899398 9.734699869185352
Li 7.0283394921031475 8.098820226567426 10.80760277551573
Li 7.523458861735122 12.925054197380907 13.14104262279175
Li 10.162650274718748 11.67868642119734 14.117352732121965
Li 10.416632678998049 8.549024865235284 14.239572530624988
Li 14.006820736598788 14.145945654685653 10.075111210156823
Li 8.0014038684632 14.299389937430933 10.500620629092758
Li 12.691180605785537 13.034435103398211 7.439230242472474
Li 9.465080081772024 12.50083227246606 8.488300696906293
Li 14.698901473501667 11.597353787793494 11.701810311334862
Li 7.826121976298077 9.829523260072866 13.235852059610504
Li 12.153961681558842 10.048319608085086 12.303047444497462
Li 8.792408657289329 6.523212725130967 12.691674689133881
Li 9.702081133555248 11.984029421383365 11.35841034701742
Li 12.296262845185671 13.083083707548683 12.445986255472404
Li 11.092897402695712 10.4411434953725 7.132013486857766
Li 9.690565797109988 8.849341659674769 11.510590132093416
Li 11.829534855223113 6.972639579347825 11.87435447078973
Li 15.136545775022658 11.70099484124419 8.8133188584147
Li 14.362434046296263 8.955590001627632 10.41015957565494
Li 11.70784435714596 8.672356362460187 9.41868325587397
