28
Energy = -41.32467367 eV
Li 15.665063184231828 13.42232583970416 17.359116445353852
Li 16.457722743620483 15.311942046179013 11.681769497121703
Li 14.388013029654385 10.4839706722504 12.447526172796914
Li 13.979305105740334 18.931325559314217 14.219393168578009
Li 16.98018087501004 12.066699535537822 12.753714727237762
Li 12.243098788831608 11.880596033563771 14.085624237851025
Li 16.936138663336344 9.516397512322696 11.147065029406685
Li 14.984266307934515 16.57782941683995 16.290356077121174
Li 16.45926277827848 14.416247920920998 14.636509259381734
Li 16.559004466070984 9.476862490328699 14.209089667990643
Li 17.881393332323 11.928833542844973 15.706325297739719
Li 10.693736559431668 13.973709152933157 15.694091018486576
Li 13.581290503855483 14.226346753583401 15.395137304721075
Li 11.7573064372528 14.707438036675617 13.060022761019972
Li 12.9739899322221 11.817494626044397 17.027466279429806
Li 12.076803218340807 12.610351128617358 11.09974640612914
Li 14.403742761519256 13.45754528119246 12.683562559220613
Li 10.322978226883745 15.26282266449656 10.78540292767063
Li 14.319594170724034 16.295726013396028 13.390659796765677
Li 14.859099492547463 18.13460858377611 11.3169168229529
Li 15.755280292022315 10.225230943223197 17.18295503190078
Li 9.538447042081097 13.083937431203223 12.872779008132095
Li 13.530483729791412 9.323336162695878 15.212378789770028
Li 9.447092634581189 16.08953079270536 13.599497492804135
Li 12.069219157201095 16.747290885905866 15.22124640825074
Li 11.950332548728337 17.58183821285172 12.261377661400768
Li 13.469814697469502 15.474583733530102 10.688233435869176
Li 15.098059116823288 11.73736962972302 15.054464750843795
