21
Energy = -30.36121273 eV
Li 12.505191343608065 12.41249955723602 7.3221264442618486
Li 13.883259125412948 10.084721894125591 9.197202366971913
Li 13.603137349845365 13.139514744956712 10.159590464077082
Li 9.240419941975311 12.06832612195295 7.522463163784553
Li 10.845291854398873 14.314278933162107 9.16509315926222
Li 11.150003531093208 9.507928345710804 7.639800781320959
Li 11.354073116836132 11.713030956652597 9.699596968806446
Li 11.5062456050476 6.769038373063642 9.052307109294594
Li 8.392908328337061 8.106495394890167 7.935976098551236
Li 11.631740553559538 9.061301925588538 10.39204689632005
Li 13.00847164865873 10.762391154402247 12.143400751724425
Li 9.103062972943805 10.146509815366247 9.478732013049585
Li 9.92566779913772 10.397906898237592 12.086406108168367
Li 9.202840731172591 7.711348083613862 10.911306910214531
Li 8.514560391182519 12.68109552860836 10.519293908482393
Li 11.008374219071566 13.036211305834186 12.201543766016187
Li 11.650617542343896 8.03383897212905 12.936018637640407
Li 7.016629775922267 10.0138091684096 11.24996789274976
Li 10.982123900014209 10.726981306852077 14.557653163916406
Li 8.600292310359249 8.810947956761831 13.875739833881763
Li 8.22270277278862 11.90680232127142 13.55713100026316
