20
Energy = -28.83596962 eV
Li 14.043868617790942 13.03252847644595 11.129685040544514
Li 15.014070199123292 10.46052052955679 12.64180549775758
Li 8.576502836404227 11.046640992795897 8.393422208346255
Li 9.832950630582419 10.88295160092972 10.72962540690868
Li 11.256100356788933 9.10570859234382 9.10996844780756
Li 11.390608784400644 12.992791586451782 11.578332099233
Li 12.489361333448278 12.169478075619494 14.000883854400017
Li 9.518256116538193 13.650596655864975 13.312858971092174
Li 11.743600790187765 12.114805480128037 8.897416725756802
Li 9.88850572599693 10.639990021111464 13.443220226300465
Li 9.190139631120847 13.618811805972834 9.985964202693923
Li 14.225241337031575 10.416264771332772 9.483167571198662
Li 12.365812897936777 15.079727108833637 12.975253527971493
Li 8.059610105215894 8.879041675990225 10.512609696170358
Li 12.025131236701576 15.019795467866913 9.869190934659711
Li 13.67440841165618 7.994207227879394 11.277318785182265
Li 7.426877055021607 11.690971147109535 11.548226877465394
Li 12.489243282573668 10.38867858383817 11.609517142814298
Li 12.596019966025123 9.045272235971424 14.054588823004542
Li 10.6318153760091 8.209342654510458 11.885068651245968
