24
Energy = -35.21781562 eV
Li 11.079739818795424 12.331300118263846 7.4846703428604116
Li 11.701240442184913 9.42570421899905 6.046481664664422
Li 10.557518918797232 14.413513243572453 9.91463351489197
Li 12.456682626880859 12.154285348880839 10.03331517297345
Li 9.539639389794564 11.72126368979389 9.918701041259006
Li 8.105003689694147 13.704482245248125 11.73619531684472
Li 12.997131732369336 14.502098166245574 11.912016454812935
Li 8.977095395524088 10.094248150198792 7.3704027273332695
Li 11.352922743560214 9.603536997658841 8.758497625740263
Li 10.280954210011231 15.513116730578682 13.082339565292779
Li 10.195099663052174 7.302758603871568 7.775682052817351
Li 11.21347910835605 10.027111221816988 11.724645489031216
Li 8.887677470910095 8.81895872185849 10.292046050748477
Li 10.73457755800527 12.881538976621902 12.469090348011031
Li 13.433677110143101 11.565315161486495 12.815216820716289
Li 13.801215083437274 9.522459325049834 10.43700182055861
Li 13.163031051280083 7.508111332972754 8.01819862905628
Li 9.057740344038415 13.190346932525772 14.71691875322981
Li 8.538629372406001 10.830277227813811 12.667903556912217
Li 11.579720997346417 7.3656477610162705 10.603900269455997
Li 9.849785692525792 8.12050982531329 13.241399446611892
Li 12.081212720761801 13.6615058709482 14.809826837421713
Li 12.97264400642333 8.566988173501864 13.292572285117673
Li 11.010838260491575 10.744633719200234 14.53771381638245
