22
Energy = -31.8761614 eV
Li 12.992105659874532 11.3834395887053 10.348842082757955
Li 11.891107114554723 8.63459650557651 10.124932526012055
Li 14.78590755563559 9.462115928502131 10.679341257614617
Li 9.718337859815241 8.325803039024068 13.51587226342544
Li 8.617146595103497 14.063565234096014 12.13702692764157
Li 11.696328260277776 10.35799815011035 15.024342679959547
Li 9.064237062985482 9.35381061873361 10.959423649484574
Li 8.903654722393759 11.190997866779469 13.248563638512014
Li 14.085860981063375 11.171954650316968 13.099526058677098
Li 6.641575287354998 9.425206417984644 12.745082261338462
Li 10.464976985818563 10.847472082673338 8.638832809559153
Li 15.472126357968287 12.255697217483283 9.456253866536338
Li 10.38448441149517 12.401260888074352 10.856790587413975
Li 13.517458172621032 10.342324889819153 7.90883118459269
Li 11.475073871209442 10.27898453172517 12.345024069425966
Li 11.19111550998977 15.048984026955763 10.857814480775005
Li 12.894713834252386 8.193277068906166 13.038822688628036
Li 11.526442277802646 13.042395981426417 13.32933103446665
Li 12.4592395087712 13.355847868338389 8.589178849947903
Li 7.507181114505754 11.668716931281693 10.64407716228884
Li 13.822065100052196 13.743831724490876 11.441056489172368
Li 9.181551804575772 13.72269466146111 8.888474802323186
