25
Energy = -36.71255981 eV
Li 14.518273699085048 9.46923263528444 10.806336942069157
Li 10.010245006171115 12.390188267634354 11.103785917134488
Li 10.239649240120924 14.719880959677798 9.589761692758822
Li 12.377546336232118 12.113774279328359 9.403286362531295
Li 7.447714570697477 13.099080881968293 10.699536796995275
Li 15.521484050464911 12.457642062006508 9.972807709271411
Li 9.378044926581207 11.409220975583501 8.709370965979874
Li 9.290727362788282 15.013042968054407 12.359752441580499
Li 11.853032699794484 16.78244923842532 11.904337625649076
Li 13.406854273541297 14.91663700204773 9.785965679890307
Li 15.863010496584272 7.859899081847697 12.91405945665747
Li 11.504578185285169 9.842225320066 11.004567304077908
Li 13.665670045573263 11.987892657090251 11.768070803441875
Li 16.149693592278492 11.07979277364212 12.767640309915986
Li 12.82239467777423 7.2294034557557865 12.14064855243674
Li 11.949473098636977 14.126703939613671 11.879561595064338
Li 8.514252990691364 10.189197952970014 11.464362228222765
Li 8.848414976134517 12.266610589620662 13.709029740612888
Li 13.576969315477745 9.583998099743823 13.526342883994914
Li 14.713389873317706 14.470301068456823 12.464013380230272
Li 10.565020690548552 9.137853900178799 13.653669342678521
Li 11.461933223789483 11.68478036036686 13.304278024965875
Li 11.398903673303538 14.334978648024743 14.555745974506992
Li 13.80888860406168 12.440554779259744 14.595712351554367
Li 11.14273698815031 11.423560700436537 15.946258514863972
