27
Energy = -36.90866706 eV
Li 8.693805947745885 7.3812481127783505 10.385625470124307
Li 7.127436256399888 9.510881875304191 9.114185812110314
Li 6.896105770990865 9.269267353556469 11.96560036265131
Li 9.620825219387395 8.764394766279143 12.692627853231
Li 8.224252435886557 11.287924135329392 13.551107860665379
Li 8.2329282677971 11.651873953520116 7.605519959403854
Li 11.563726163061084 7.877025132819123 10.634286343866476
Li 9.977114465964203 9.885091688844643 9.338175658264229
Li 10.170891575632966 12.9123658153268 14.607893152646184
Li 7.9820555109090705 11.779757098508863 10.694461824912981
Li 10.806941223533245 10.181961427499939 14.786807986420378
Li 12.650768018348629 9.209773188559714 12.949372009830906
Li 10.83251695902136 11.30608646181839 11.827597299838262
Li 14.409701588638598 8.47456034519674 10.745119051946068
Li 12.755126950021735 9.867924031414141 8.7987478535765
Li 11.09920086077472 11.399938825825123 7.036177560374263
Li 10.2478274330802 12.894273244190835 9.325199423358283
Li 9.370331423896259 13.944105182203698 11.951457612836657
Li 11.513703093712717 15.065580833120316 13.609724243671558
Li 15.360471509966484 9.934800243114683 13.117606435392355
Li 12.919939512253507 12.21845450292607 13.671077526986048
Li 13.825656619299064 11.324515092714075 10.941387831314174
Li 13.097858541102523 12.80333496975167 8.461670577133916
Li 12.229994825536258 13.842589838290499 11.093696634987136
Li 14.17975334121412 15.050715126481974 12.819041387486532
Li 15.018476365244817 14.042833057846375 10.195671018065898
Li 15.695851167159093 12.640021147993986 12.66602035759449
