24
Energy = -34.87867574 eV
Li 15.4527577818855 11.120212532731921 8.856194490945779
Li 12.736911627696356 12.24556069518287 13.230051477449926
Li 16.549292011563686 12.408733420502593 11.554746629454444
Li 15.517182275363405 14.202744055157261 9.500100150454493
Li 14.176422791929799 16.697635259940526 13.913930485952035
Li 11.260372885349131 10.770493795208854 11.450324167893395
Li 16.433451356738555 15.860752784083289 11.880011503241292
Li 15.806718515172559 12.975552087174798 17.246433325162858
Li 11.018218948704291 13.965295526407504 11.594614128549784
Li 16.7982113100007 14.212383851774705 14.438433883436792
Li 14.621178755693409 14.04352617102451 12.63449212761595
Li 11.16431787908637 17.172584705462153 13.104430404771684
Li 15.179570998430782 11.67512069245596 14.427639609322748
Li 13.41875919946668 14.522330858366686 18.27272523034663
Li 10.169637707205869 12.243109562922987 14.123445322787124
Li 14.377769350126451 10.342374137950028 11.688659287890433
Li 13.301768482509372 15.85091359788023 11.132375173241163
Li 12.366058561821411 16.580479734598995 16.29547418397502
Li 15.571941335328383 16.14554516761704 16.840247570822278
Li 12.592872185680601 12.264542409730087 16.20270671782462
Li 14.200050080809435 14.309840997233843 15.544769673074622
Li 12.480541905497324 9.807488657559897 14.262017341325318
Li 13.411231938428005 12.59840257592801 10.313998419101324
Li 11.92966991681768 14.74716952865316 14.107622659482821
