22
Energy = -31.96819516 eV
Li 6.901893807876797 6.379115455886233 8.848000613973747
Li 6.491347695081971 11.416637400110305 10.832394228778822
Li 7.735772541659039 9.205192764085773 9.06994936118922
Li 6.5037096286510465 8.23290527421733 11.458377403422183
Li 9.0592187318914 12.000167191284579 9.398785503426398
Li 8.919336626220748 13.061316015256896 12.149773367380273
Li 8.844159109708487 10.115945082706993 11.649204155873827
Li 9.70605532239822 10.45543485173873 6.922873788967845
Li 10.750362912195616 9.549233926268363 9.375880619915572
Li 9.704631919454428 7.373819133005614 7.741990889628859
Li 10.96180587407711 14.318433747202462 10.143105322187862
Li 11.981258181937147 12.008476854313717 8.328935485162827
Li 11.415028905787654 11.775077425695082 11.29131311905773
Li 9.180380799446807 7.276317659808566 10.620624665107607
Li 11.947207677818794 13.832853490759003 13.032580361953476
Li 12.475516747376695 9.122670160826065 7.270706984930804
Li 10.502083222663277 11.103971764673014 13.951117390616723
Li 13.804315271979053 13.178984387209992 10.680009514488894
Li 12.247443707106951 7.208217691007446 9.69072650397218
Li 11.473283812252433 8.882011127321034 12.095180653354067
Li 13.543673403557124 10.032448470123777 10.077080832355673
Li 13.510455954052901 11.094250191807474 12.980827290388111
