22
Energy = -31.76817373 eV
Li 11.628653020200648 7.578359430570766 11.567906178571004
Li 12.875102408914064 8.839676648425701 8.97643428730951
Li 13.071273200451937 8.854029716797708 14.07473988982169
Li 10.196144296027361 9.912260797215357 10.123398447726641
Li 12.738268788856034 10.164270332866483 11.44467402140419
Li 15.085472840420868 10.952043670646553 9.838136422828034
Li 10.389711039155923 9.794518011691121 13.244402782343654
Li 12.384991011431257 11.858331413904738 9.020980337667856
Li 8.12223815464771 11.635895333988396 11.853352444502246
Li 11.263661871967784 10.499353944069346 16.075667143989737
Li 10.739548535823157 12.385411420729437 11.585867073534901
Li 12.540844820602516 11.758624740343109 13.90394654666675
Li 14.589056325870837 13.977959663994104 9.01084508277693
Li 13.666205873759942 12.957693498077134 11.467197596066482
Li 9.843453693665642 12.658472186091403 14.356119584048663
Li 9.324483684328207 12.880239737291891 9.297817384939133
Li 11.805283883992518 14.714580603551584 10.159337853590971
Li 12.275644599068778 13.48466678892225 16.104607985525217
Li 14.350178299029754 15.682503759755626 11.627286714876982
Li 9.109287336202962 14.564605707333229 11.88165042744575
Li 14.718604768660057 13.735630164174598 14.107488401067563
Li 12.0193839434123 14.625151067426627 13.285531314909944
