27
Energy = -39.67252099 eV
Li 13.323993438725854 16.923403413235064 11.86318723140396
Li 14.837671205925329 15.266828659750988 10.0028960435029
Li 16.550939582258618 15.71431392019601 12.610535170792936
Li 11.783045019688963 14.918861104684733 9.39183341488354
Li 14.114615099188862 16.105105622179508 14.475487726572098
Li 17.023231695453543 12.80404770323072 14.140264120151837
Li 11.802655096442326 14.706506801642686 12.441986567017004
Li 16.438240969031806 15.173242106442506 16.01340859908221
Li 14.494382062200609 12.878658414712072 8.083251439797799
Li 14.555112534770744 13.978135716358906 12.748747370871914
Li 14.654035426745677 13.211715018718882 15.406032033668145
Li 16.24727980640381 12.750768842308409 10.689876504287932
Li 12.138835499191178 13.990206688418024 15.2142698535621
Li 13.635317156917647 10.40585910487873 10.143688336579698
Li 11.639080416679272 12.013708970631516 8.377907819465033
Li 15.085698171732352 11.080612814159204 12.743987888468595
Li 11.188273018114632 16.535637011775655 14.876157077284297
Li 10.609759109271577 12.296235585434369 11.192139640921203
Li 13.274537654401447 12.950486729729265 10.503798692035442
Li 9.630445018761456 13.695234742018716 14.106944945500912
Li 14.19218981147611 10.602131542683457 15.636480801540033
Li 16.243618973661775 12.381509427126414 17.418924974011336
Li 13.504388945156242 15.440708377838183 17.290196489912297
Li 12.496272053367273 11.893157995074334 13.318829859000004
Li 10.461577337975973 14.39212382270714 17.244305394473923
Li 11.006818514133025 11.549311943351636 15.839630553782605
Li 13.067434483404702 12.563579966500646 17.736832952135476
