27
Energy = -39.47700685 eV
Li 12.140248593416992 11.619585420217042 7.232724185405091
Li 12.553257784970414 8.575295447561421 8.08914625198464
Li 9.638014015058783 9.82414198527199 7.8261394310977845
Li 14.390341427627755 10.74194815520363 9.288850064989063
Li 7.146703997167839 11.55551259597635 8.50266906393224
Li 9.82972370912685 12.74635706430547 8.936773954467752
Li 10.307684989645244 7.937545402140751 10.169477756608009
Li 11.665750500230939 10.693034583777985 9.774579120027557
Li 13.16596067348912 8.61657456203491 11.113829769486571
Li 12.615573636016768 13.49954520385771 9.751367647332767
Li 7.379243581841663 8.389804407208242 9.27998455041083
Li 8.801489593910825 10.502642375341235 10.604422517069558
Li 15.662365162143523 9.553656037339659 12.016124308908426
Li 7.880481853350625 14.657021688426017 8.360608657292119
Li 8.399310138303413 8.292891512115077 12.432829774109816
Li 11.383531097027424 7.086046849707151 12.92721227172462
Li 13.376655045902702 11.61120240405773 12.073326678551467
Li 10.140416106815568 15.292839184721126 10.66308247608111
Li 12.410631713014723 14.63015577076241 12.724117195498241
Li 14.53936151475363 6.777267421505127 12.775035647747021
Li 10.620564877818108 12.674365778388768 11.802183521611056
Li 8.605779890434697 11.45880095289508 13.46579031063062
Li 7.802068998694986 13.31844501376626 11.049288420932857
Li 10.850832089052396 9.878273198231202 12.517842169533392
Li 13.343993026142682 9.282669273859277 13.955183463855347
Li 11.533498103387764 12.116299912302555 14.44267243185515
Li 9.505904192892633 14.476112241987906 13.584922568367416
