23
Energy = -32.59615969 eV
Li 14.241793693343393 9.788431432121882 11.879929768052628
Li 14.658922952813809 7.517635413272731 13.909333973451798
Li 13.25383995641381 12.28749883956719 9.580418005685173
Li 13.641028973834704 10.261383965345424 14.698117029247378
Li 12.882708221156259 12.469289238376856 12.616987290000747
Li 12.669807266570157 9.364569081694258 9.113066486838138
Li 11.551228781374947 14.55686690706558 7.53318946579976
Li 11.930485320566921 14.835200037538218 10.612509489818269
Li 13.37990552295876 7.130389302271289 11.129006577003926
Li 11.676568438218247 11.58873269818728 7.03724337415755
Li 11.968669095762733 8.557671505558773 13.124046034557761
Li 10.548000037962177 11.051431660787678 14.053997108255128
Li 8.77813270964935 12.798121834026572 7.19580799551112
Li 9.984528403493316 13.024149505848431 12.007043878742662
Li 11.410420503518909 10.597696407227314 11.169988685124748
Li 10.568138694842355 12.734548197687289 9.316507084064918
Li 7.490118529548415 12.292831873999058 13.241960417971999
Li 10.343677374866285 7.9413562084159866 10.526623753214963
Li 8.710496686717155 10.08194841490103 11.845313560481781
Li 7.765685354005286 12.050479827671 10.134680487273018
Li 9.755591379706914 10.20543571054976 8.74166738575851
Li 7.305961401494232 8.975199618352557 9.56429638909505
Li 5.654571083882976 10.52981262730968 11.576743430536439
