28
Energy = -34.65028917 eV
Li 8.314432308700605 12.654702636759195 14.819427450222287
Li 10.411782461821991 10.727331800610864 15.129503860808658
Li 12.208661717587475 8.498670008485403 15.350652233651727
Li 10.578111332145886 8.470010669477123 13.050952320773002
Li 8.691325577511796 10.649449107017979 12.753049961236083
Li 6.6375348940334495 12.696239096855493 12.375230413178508
Li 9.071616957044006 8.666349409498201 10.69864977036456
Li 7.071856452024739 10.80322727436465 10.2806740235619
Li 7.548812202258903 8.941643169444543 8.238499112819497
Li 8.576690556719889 14.873071439895583 12.845826132702541
Li 13.645231898403017 8.374734771111257 12.867543356830414
Li 10.737159953763285 12.998549288029535 13.238324412693917
Li 12.78487561883248 11.032535193101035 13.542996620109463
Li 11.918702968893344 8.290229350860239 10.492869484560613
Li 14.78796720818609 7.967490220254822 10.28467819267198
Li 10.889569010923461 15.172471850725502 11.202726075977672
Li 8.951460716809212 13.064655627582802 10.614351428516468
Li 9.343706351310916 11.223564645868677 8.43356991893762
Li 10.2996050833776 8.458889314627994 8.023654602092304
Li 11.011573749743684 11.031505288671486 11.014835658700658
Li 13.964544455266267 10.656159122863496 10.97026177858891
Li 13.114720091906372 7.984041692264198 7.843404942803126
Li 12.18286614050033 10.719103993723254 8.350428269116703
Li 13.02507119380277 13.287051885231529 11.550896726121128
Li 12.954324583033907 15.42580492626922 9.232328447532078
Li 15.027293798794837 10.191415825194543 8.327195922203712
Li 11.098425973043856 13.387319158340516 8.687752287028424
Li 14.125517891150219 12.826717713359232 8.93715335472575
