20
Energy = -28.57423112 eV
Li 9.684425892579823 13.539244181920637 13.807872391468425
Li 15.947320464547182 12.396026041730853 10.688209213269953
Li 13.515064243204506 14.272323640890471 10.67745992089445
Li 10.757308020671367 15.48337508101339 11.679750886284118
Li 15.45928526164548 11.920569262421795 13.8367526201017
Li 13.647680398751403 9.301734191223552 13.756221919281083
Li 12.773938010506619 14.021621690246668 13.630237398863223
Li 11.810579195946143 9.665430292666995 11.497603767619442
Li 8.518096318661115 13.317913535867412 10.835885929025016
Li 11.65093684759363 11.333947579283722 14.120617078594842
Li 13.630151354913393 11.69480508604005 12.002908601061801
Li 10.04587206876385 10.971569285431038 9.477482636955601
Li 9.213497829531466 10.787506268968722 12.329880872168335
Li 9.330415379977568 8.292033133754934 10.755167531304489
Li 11.170875619910285 12.806089252952527 11.495225816411745
Li 13.087842286047959 11.517297921743276 9.31214227809334
Li 10.988784807423398 13.855326853292503 8.90466282511795
Li 7.184350802269353 10.519878204933049 10.179895804807842
Li 14.928055699701106 9.557959499491227 10.96942716268849
Li 10.471716798375597 8.561546297148652 13.85879264700989
