20
Energy = -27.96816082 eV
Li 14.116401462782676 10.39240892878019 12.397196332915945
Li 9.212207749373766 11.207517178783345 13.13560128595553
Li 7.774283536486911 12.181615664912977 9.554170105183701
Li 8.658562820805553 9.501355446389564 10.780054215225306
Li 10.699619352964266 10.062459122283265 8.649537188929905
Li 11.934613669329357 14.459610188982175 10.600620596438647
Li 14.520598009369207 13.351946313445335 11.891415618072207
Li 11.982600238502329 12.437342000210517 12.72616699816303
Li 14.695071985947129 9.321729502882656 15.024423559191886
Li 11.417268572626087 9.76167163877398 11.561964844832184
Li 10.72239423712053 13.002984937369236 8.006561117756537
Li 12.425641115494953 15.040121323545312 13.598328028277708
Li 13.473703145307615 8.745306251957837 9.878389578879332
Li 10.14699110273129 12.134504885644704 10.558335557235004
Li 14.007673563053253 12.348391174514042 14.726047519879476
Li 9.55305868524551 14.133380736635903 12.507901087692495
Li 9.126007157484072 14.890683298478082 9.672739668584477
Li 12.981712922661382 11.685350740129552 9.830079435879078
Li 13.079681632434554 7.694548044642544 12.863958917356042
Li 11.89000737656375 10.065170957922795 14.45460667983541
