24
Energy = -30.58938012 eV
Li 11.445581936035161 15.706499723175043 10.246828455499397
Li 12.684052292921901 13.776768338620776 8.343257307550314
Li 12.990349474374822 15.785376114852061 12.872035378403776
Li 14.533403378918607 15.457851639092016 10.19792713886208
Li 10.365537949479817 14.203967520345465 12.645704125987058
Li 10.195469011419114 12.908328118449033 9.915040128361802
Li 8.574955458702497 11.784982686295933 12.284352912810608
Li 9.853288580885643 9.892167643196988 10.370455206728845
Li 10.012318509420657 9.28647122496006 13.417378904671022
Li 10.243925077394968 12.04751683338986 14.820422846932649
Li 11.315508143380994 11.381501269455761 12.196523740515168
Li 12.484841767386651 11.01448167650425 9.484214593660624
Li 12.896290597064036 13.008852738563844 13.887568938974606
Li 11.413551548513414 14.84766602864352 15.359375116201937
Li 12.848839587999931 13.472045414838995 11.10152611091706
Li 15.384264779720194 13.875838689468502 12.617159169084564
Li 15.145236742321531 12.495973859598465 9.767072079670896
Li 14.431757399378645 14.781467742742912 15.365749201888205
Li 14.421901240647287 11.038565382514879 12.251680399503778
Li 14.838877517456726 9.522891880368153 9.921779804329798
Li 15.189282612199449 11.895867850250793 14.975469542778644
Li 12.691906817871706 12.416730758139384 16.59002218218229
Li 12.664042869886167 10.163732770684009 14.543511639955799
Li 12.486545451537227 8.863796410724294 11.65112894648533
