25
Energy = -36.72655981 eV
Li 9.186260070638678 11.01586378595051 10.473666107115369
Li 13.796087710514355 12.837304901272043 8.96802140239445
Li 13.748246839630061 15.230783115530153 10.927617052850978
Li 11.592940199449016 10.708936141276357 8.338721072399927
Li 11.417544600051789 8.893744693958464 11.363175610362688
Li 16.579432518422475 13.096834155597358 9.974944428363349
Li 11.052494431889437 13.77248813014866 9.579395874169231
Li 14.567624252141304 10.254724286378368 10.217878611933903
Li 10.272428060640461 11.173152757448475 13.092306107121917
Li 12.05022675533559 11.522974252240566 10.814802033145574
Li 16.743301263901454 11.224645619122795 12.37736437107871
Li 14.549416330486011 12.738033612170154 11.855420353142303
Li 16.43840561360229 14.48631352742884 12.647970645151947
Li 11.006293149917845 16.088700125609417 12.327705657811416
Li 13.518756269365191 10.430194725124116 13.059974818743866
Li 11.876372580310582 13.530066993274803 12.50663828544117
Li 7.467293552067341 11.77924324854529 13.200778279160186
Li 9.111175191658715 13.709122620006395 11.73589449213827
Li 8.638373984001044 8.970258423599054 13.01713327003773
Li 11.348688213247224 9.009155159527694 14.535942898504937
Li 15.140818208772393 12.451014955093713 14.618124810977728
Li 13.505357137838166 15.036567857551647 13.998773041678012
Li 9.190529566008507 10.855233755318945 15.575772257987683
Li 9.811439566996071 13.892171860227037 14.495320786653705
Li 12.158994310603523 12.060971675087817 15.065158109123855
