24
Energy = -35.13920972 eV
Li 13.814778820708954 8.19439713406821 11.629272943933204
Li 11.678591021380912 9.54712192052073 10.888148953852888
Li 12.279628431153546 10.56821130814327 13.407489637525806
Li 13.656575993575826 12.710185750627526 7.869134617659777
Li 12.972630559350197 9.620612698455528 8.411672176270189
Li 14.262382357636636 14.416847558832252 10.144683453791282
Li 11.431593511547367 14.51300501697464 8.872382674388984
Li 14.039886630950956 11.37550791008467 10.787364656163861
Li 10.744755242225473 11.947910956347114 6.8594189647933375
Li 9.894808927264307 12.83270749294099 14.139182677222971
Li 11.518749524388122 7.125949408486718 9.679032118532826
Li 10.509283799361025 7.404904896503295 12.502997712472741
Li 9.28754093465306 9.763426297820542 13.84601137839685
Li 8.447237982554691 6.709695958463521 10.13126066325078
Li 11.533394995649132 11.933627207256674 9.482004390829008
Li 9.87244549382473 9.336795802298822 8.395953258506989
Li 8.92257457573463 9.175998691682077 10.997163301278421
Li 7.102121016610809 7.918117292592626 12.535220375117941
Li 10.109886530989753 11.53347736875053 11.83283713291618
Li 12.149655533972586 13.440939039531008 11.921289800342773
Li 7.325311888560774 11.30989325425419 12.047834133975089
Li 6.720836777594378 9.242413535660603 9.487631900853934
Li 9.223264813348875 13.976479869368292 11.183729897664506
Li 8.672349356183965 11.77548604326136 9.251689751965731
