26
Energy = -38.52705097 eV
Li 10.245985895190495 13.604226053774182 9.047780391691607
Li 10.188596389194881 15.904713582411452 10.96170382624966
Li 7.5638855626857335 14.665753471213893 9.681293081067682
Li 12.748738503656094 15.466526389137945 9.264537749611229
Li 8.211179521580856 11.42413982618919 9.618919462327638
Li 10.797699566860725 10.703107333253259 7.79753785199759
Li 12.121819337596511 13.76856423628991 11.404325747794635
Li 10.796728301945704 14.68274333924891 13.816851686964418
Li 9.876321020181685 8.576054412785725 10.013050836316278
Li 13.099115273559896 16.1527836007803 12.232171213471057
Li 13.144955622401286 12.308265061644155 8.976545422644056
Li 9.099367713354525 13.215820025955905 11.749874749799437
Li 10.954830801364668 11.170767249895231 10.526868852162314
Li 14.910212937405252 13.93565844680044 10.967991372304319
Li 12.955692291807408 9.264630000677656 9.530501842400854
Li 8.874936201854057 10.144508144914816 12.373915342806203
Li 11.195357512916656 11.744649388219432 13.368631950608656
Li 11.715354382347494 8.95762561337096 12.337599322291874
Li 12.121431591117494 6.555394449580721 11.0154564459978
Li 13.684250598573731 11.204737339560308 11.709020477135322
Li 9.653901162501516 7.103409263228349 12.74457304516967
Li 13.676851411555653 13.310012959715042 13.803209488142107
Li 14.509286351637671 8.29836963202913 12.101480617923006
Li 10.444893542633022 9.245584244705725 14.898596208771805
Li 12.489257065861064 6.983231802767615 14.04780493501082
Li 13.437094264497949 10.098116755526643 14.399205373830485
