29
Energy = -42.5663256 eV
Li 11.696558703575633 12.56318258526174 6.919940073621728
Li 14.046351776095259 12.402032344486107 8.922454947772385
Li 11.701995507840826 13.844136873433213 9.843134092390589
Li 9.2618382331214 14.043156417909355 8.023816392043733
Li 14.108596675943131 13.465055990144009 11.726303906143675
Li 8.842786027708655 11.54192090530066 6.411212761794206
Li 11.010833331058935 9.521745547673197 6.542931239415747
Li 12.653661905711777 9.94288273678552 8.776281802122595
Li 13.488349546685223 11.432745236625026 13.895347104421967
Li 10.202716462705162 11.443806517263813 9.012980828350232
Li 14.723518265766018 10.369630840450343 11.172543340965575
Li 12.119302320292785 11.311259182861091 11.306295999171281
Li 11.311433305667125 13.377736292690075 13.008685120840742
Li 8.965576723541256 13.674281549604732 11.085256251456332
Li 8.597192220818528 12.831625143185498 14.160779946146791
Li 13.563432103811047 7.64470812438617 10.113495745734502
Li 10.604918187276947 8.748659839164965 10.44064671167306
Li 7.443126693952226 11.70687294845503 9.241105823098176
Li 11.13276392895661 6.958899433775112 8.348883128117148
Li 9.277948783225293 11.019231316811384 11.863278593941443
Li 8.706363858176742 8.988973533770857 8.262862122651281
Li 6.557215283699718 12.02767794973773 12.146614975412703
Li 10.631726157311665 10.54919882798011 14.24036024576566
Li 12.468514877255753 8.733769051205227 12.669507757747168
Li 7.579689003740703 9.973776866839653 14.081891549001288
Li 11.36437873908671 6.036822951378888 11.34263917565762
Li 8.712075640253211 6.525387259474688 10.173834442324411
Li 7.406109171428141 9.155575314062139 11.042465230788316
Li 9.495688756753623 7.940343527777225 12.911853810903178
