27
Energy = -39.02746214 eV
Li 9.79159240087786 6.596309506629046 9.834327772292522
Li 10.572245566858484 9.286659065579729 8.789527444273126
Li 8.279633340802757 11.231756861861648 9.601003335718989
Li 9.300642423761003 9.038476845746125 11.443077392229021
Li 9.187408650150616 13.945119358974635 9.811811231599494
Li 10.901501175427315 12.211561524721807 8.105644487513048
Li 13.680210288669615 13.219258535482936 7.725963350236673
Li 12.172201907468658 8.23047817127097 11.015286985763641
Li 10.987698787569043 15.041898830037177 7.49598621398106
Li 13.493595937029673 10.570388326089297 9.135233453845823
Li 6.836136538402921 13.28103090128747 11.583808837032601
Li 9.195571576777578 11.960811911842052 12.331652086025175
Li 16.202226213404238 11.429961162721753 8.250035030588348
Li 11.301929929812202 11.241788117813273 10.824716518566289
Li 15.92294207361659 9.755234093946777 10.848161229621526
Li 7.812332637920273 13.172081675641635 14.492905736940305
Li 13.580252930612128 10.369281103558698 12.28171788987948
Li 11.066276328719345 9.818465896447279 13.583617347865845
Li 8.270652826490137 10.144037144016735 14.356349843721496
Li 14.710440237813426 12.476064177103044 10.599286731315129
Li 12.51848788147471 12.77199362940834 12.961930382406965
Li 12.084834715644076 13.894031126882808 10.133372936740267
Li 9.921685239371904 14.449874325993964 12.665193873541547
Li 15.659202822661893 11.738933121757228 13.407342101096917
Li 10.518779032043767 12.039851592954433 15.052966436048036
Li 13.285478296916535 10.592278907141878 15.221003597513095
Li 10.519703063001732 9.369415863667179 16.405580856755222
