25
Energy = -36.20792265 eV
Li 11.781918060683878 11.127562385052192 14.563430901318883
Li 13.411430144944964 10.546586056186285 12.091911907784045
Li 11.677371336134843 13.251394356934195 12.119897030986875
Li 11.220586304795274 14.118037652872529 9.165732979473734
Li 8.874384175422376 13.601666422144167 10.983824468946583
Li 13.735029121335105 8.007430405794048 10.525736238252222
Li 9.195539767507299 12.625511671395033 13.995176682847644
Li 11.794290103790663 8.360053860367008 13.109605116708673
Li 9.223899591338498 9.60407914171667 14.411504705049774
Li 11.398807051675888 6.081548013092443 11.114436460494058
Li 12.22991198043516 11.464570583625983 9.69965287142782
Li 11.092582681020653 8.763747674234107 10.00872049283786
Li 9.025759137601089 7.979441555999608 11.861820101096724
Li 13.078438681313555 9.560704975250113 7.809352570488
Li 9.515487211692195 11.576649612968751 9.16347697562585
Li 11.062657275472802 11.994973395523123 6.827526486608436
Li 12.212468318334261 6.6884973852655785 8.239685904732342
Li 8.665034841183909 13.85491028409813 7.656529829212142
Li 10.395623590510237 10.765726513851277 12.047398560580545
Li 7.626146750382495 10.927205305243898 11.913937043762306
Li 9.280855677770758 6.673543897334089 9.045256672150337
Li 10.228391111581022 9.120523152225397 7.336278926303643
Li 6.684720159556514 12.200161944343158 9.258041944031584
Li 8.001461985753005 11.09825407894198 6.726355872136297
Li 7.9346460154020875 9.354871832891662 9.367351789416217
