26
Energy = -38.31364049 eV
Li 11.363428915773389 8.112193271893203 9.716310618507544
Li 9.542719268876631 6.6469084187262055 11.604657889722846
Li 9.543960775239889 8.569546414801646 14.342776615341558
Li 12.098432828578712 8.19731189366649 12.71337506651023
Li 11.391657120982744 10.932237765493031 13.929362060478258
Li 12.403042504313147 10.605264590599488 11.056323865190242
Li 14.21903325192032 10.576256510528493 13.316889588664285
Li 13.263030406006207 12.86303314179805 15.36726162589638
Li 12.905751764251457 10.352043125889452 8.250103984440504
Li 10.242291931318265 8.99310626117882 6.821271460234268
Li 8.418641444641109 8.378729272550057 9.224783276063793
Li 9.743173392885012 9.518101458965711 11.725221290327719
Li 14.388235437938592 8.806585026395956 10.574773283386165
Li 10.097518126109746 10.745640803904427 9.027507506557955
Li 8.558686552682978 11.543753421918495 13.629419994898962
Li 10.181596980200473 12.42331372635139 11.516825192681003
Li 12.093665142990357 13.044601237000348 9.460770574530953
Li 14.79117909544366 11.846676615959396 10.436375461363367
Li 12.920343249022894 13.162160752910404 12.530519294548428
Li 13.15321898674653 15.692376073449264 13.822582882721306
Li 7.921256635849356 10.893209460285222 7.3587772828151845
Li 10.64618901515203 12.030626356075578 6.656989932059686
Li 7.644843292878898 11.179905222714828 10.542572801368506
Li 10.749346847855547 13.916207789876786 14.101314212988543
Li 9.138820168304242 13.530481712329276 9.03852439488901
Li 11.132369949333027 15.220639439932356 11.391016690841846
