25
Energy = -36.35592518 eV
Li 10.493609197105949 12.872965332279255 7.669200823370417
Li 8.452165235613506 10.78001624427495 8.484532888083573
Li 8.572290176960282 13.780899104206018 10.106361068097316
Li 11.67063640364431 9.839593079318487 8.231055724883024
Li 11.481576181892349 14.7068010958256 10.053764671412337
Li 13.108796067883146 12.34799843218382 9.3286917938195
Li 10.557743468775795 11.557241811587225 10.033474704001133
Li 9.594083471264977 8.849753372244779 10.768064363694421
Li 14.990149909149924 10.166394358997248 9.9274380576237
Li 15.424358206247138 13.360232252387275 11.207706101900174
Li 10.562029208505896 13.200891483088684 12.100910801342511
Li 12.471164328810254 9.625585249557775 11.112803837263296
Li 11.335599082064444 7.855813021271151 13.1981410805145
Li 14.469060702321443 8.012859820232025 12.260114080552572
Li 13.18091163396593 12.086767127956852 12.14720565907227
Li 7.9771680395702065 11.203500113932122 11.445034293533114
Li 10.545509858529572 10.615058148693416 12.961382827416323
Li 14.790843912594696 12.973737330000354 14.269728919386129
Li 11.626043377530605 12.898952599902636 14.652693889350793
Li 15.796375445931563 10.674637840426303 12.63142849733683
Li 8.306954953369273 9.216455610550621 13.664271146406112
Li 13.266794325840856 10.06781683406305 14.200014562231184
Li 8.487790005871435 12.67415529180913 13.88112650152532
Li 12.933649269960299 14.874282576377938 12.702838620017427
Li 9.706695796108697 15.559590128345212 12.764013346678409
