23
Energy = -33.4326873 eV
Li 15.597687378015387 8.889388017282634 9.187340888781334
Li 9.443159921623423 12.324028285403985 10.19135230988014
Li 8.225678948601304 14.07782210269043 12.890797117013141
Li 14.598462235265618 10.71761106184672 14.337829708394828
Li 13.07681765835946 15.39100063405103 12.189545707711218
Li 11.626525377682599 11.137141837425242 11.268010923009987
Li 12.17697896261481 10.857636167653556 16.39001909543537
Li 9.987562401098138 9.0901130705125 10.745128413138902
Li 13.170573790510046 13.774847095098542 14.89837354067568
Li 12.42802186195304 13.519539012565488 9.952630992368542
Li 15.633230282514658 14.215574719620951 10.705165232942216
Li 13.883126363503651 9.62562669312347 11.431816498732347
Li 9.317559300315079 11.086529358313419 13.0278271847381
Li 10.505995686869918 15.883254202340494 13.998008671982538
Li 12.092630239148383 11.545793437379027 13.850021159046129
Li 10.914054156926348 13.62706651886672 12.536659834543524
Li 12.27954903573526 10.063692408490834 8.821651783686507
Li 10.10778140013023 13.102034791448776 15.221927205746157
Li 11.599909002500727 8.990469088314205 13.567351169320565
Li 10.165153852952976 15.571878705575877 10.875827518695056
Li 16.53780967167894 11.036929029634823 11.495545851001008
Li 14.6468965492419 11.611630323683515 9.52681077166206
Li 14.017177985779968 12.611424610999132 12.18230534445973
