20
Energy = -28.79673491 eV
Li 11.801307009279252 9.39522576673332 8.164445598404038
Li 13.535798080232889 11.917330042564318 7.505421420060316
Li 10.428943719829398 12.005790310532893 7.346099716841065
Li 11.912613960205725 14.419048324237892 8.628063138680641
Li 9.285934929027839 10.107521967483756 9.652035633613549
Li 10.68099520512611 7.172468019228899 10.226819536389712
Li 9.43172298626168 13.18451616834312 10.027489454477701
Li 11.91264609895502 11.84363085863142 9.714767122173944
Li 13.392018803458948 7.873177864878342 12.243760189065908
Li 14.195575943203243 9.85182445291676 9.924236154715114
Li 11.964979662228533 13.886360199520286 11.74144756726943
Li 10.28731076010211 11.58491136056642 12.301192905852009
Li 11.623622211332316 9.483530699170355 11.125705888726603
Li 13.394115369704295 11.232139936523106 12.435706707202595
Li 7.51092799475894 11.43860097457606 11.76689856771919
Li 9.082484614474406 13.893631322905298 13.083653236689534
Li 9.095432298504825 8.808412457903673 12.356027154296433
Li 11.566326986439304 12.63394931115479 14.570418852493509
Li 11.514164004884776 9.555765736066943 14.035339047684039
Li 8.823821062499931 11.15290592657188 14.591213808154064
