23
Energy = -33.32944228 eV
Li 11.119936670461904 8.753386576881198 13.491158936063137
Li 11.326095706737679 13.871259803192673 13.65129972236412
Li 11.159617563231128 9.711053838976548 10.566130826657524
Li 14.083627441512759 13.48989269984199 11.883258452282021
Li 12.479177654511933 10.963060452132698 12.626652496450134
Li 13.994399210886593 11.19640779758932 10.169698875001233
Li 12.273928396229147 15.881609426074565 11.517488353149485
Li 9.749129237717055 11.47354899549068 12.793698589857026
Li 16.072771132562448 14.079125852784586 14.401418539043974
Li 15.134225522775909 17.008757199530365 15.437139713362129
Li 15.504571167202547 16.10871899145801 11.951845879608342
Li 15.423411490147881 11.75722327633758 16.362054280224434
Li 11.717532876408548 16.752949710869764 14.994441929625035
Li 13.80399706272167 9.643719649275765 14.791793339740064
Li 13.347086541845268 14.399160921899002 16.434214559696414
Li 13.611808724353605 18.203002109521634 13.155974355522718
Li 13.700995844643842 15.486760415820218 13.844160128810717
Li 13.96523493292979 14.329703859770403 9.2967043240703
Li 13.762200149662453 8.582968425222104 11.894439504412182
Li 11.545352829954094 12.942495018175054 10.701716342658035
Li 11.428336917178303 11.493438972433188 15.505691069036036
Li 13.73396579829747 12.572812854932337 14.454240971278798
Li 15.646409261155375 11.145459324944731 12.997826265013265
