29
Energy = -43.13226186 eV
Li 11.901988806895648 9.469075531934376 9.208689790079292
Li 13.104772207386576 9.19305430768098 11.784765923036636
Li 9.198810184658992 8.321022949385656 10.17931344428374
Li 10.190251298233566 10.457785982205799 11.589410833862841
Li 15.96750183883503 14.677365354245195 13.127142658122596
Li 12.898632212622148 11.906036911775532 10.51835736655238
Li 7.875924525405979 9.169256540670569 12.777757636083695
Li 13.249745898202347 9.717299213161917 14.853155480932891
Li 10.72410269744508 8.107630985457375 13.047146376379333
Li 7.723225491957139 11.118647969007613 10.360008402730653
Li 15.037999350430699 11.638208110583655 12.568669015056468
Li 14.181437963272757 16.494884320957617 11.302834808958583
Li 11.026913998775553 13.828936715411684 14.474143848163386
Li 11.126306195847803 16.07176655596724 12.186701487561942
Li 13.924222560834872 12.997804177684122 15.041078450310742
Li 12.117844448740936 14.651863464370928 9.676356289927892
Li 10.1370074477816 10.648066496840519 14.629295615702189
Li 13.35267753694551 14.160856956137607 12.437529294852192
Li 8.81404996653116 6.1074353611193875 12.121215841075648
Li 13.490850126004863 16.072838736511745 14.328031023015859
Li 8.392933123550014 12.398488844132613 12.934079873656499
Li 8.772512667435873 14.442368689904857 10.369084314749973
Li 10.724131027134044 13.261324515839343 11.699001462594602
Li 12.238370616977372 11.53240198501241 13.212900705119381
Li 15.131876472645667 13.674687327822092 10.150218810869955
Li 10.299609431224859 11.991384800128618 9.123470449663653
Li 11.612779929545319 6.688502890762129 10.652459279044935
Li 15.011582126564548 10.420109596835335 9.63948253042811
Li 13.265217282559213 12.288970943869893 7.902978148905185
