20
Energy = -28.9143709 eV
Li 7.685369432616816 12.668516979002607 11.834471375349489
Li 9.786615066549581 11.090349205404435 13.84238100374024
Li 13.99661219888348 14.4506407127733 12.553965941662454
Li 10.851983804458373 9.107703665967714 9.815591176738417
Li 14.764216385687863 13.062403186577068 9.757345559112341
Li 10.071734914475245 11.828679184978812 10.909354190209756
Li 13.592218534086028 10.232029408631023 9.793053559557123
Li 10.529801144645916 14.06252919620915 12.568788782294144
Li 9.232843919231335 14.099840033642655 9.57730420565071
Li 14.6391324062788 10.957460975544405 12.555346094175047
Li 10.480425805324618 7.902633680901848 12.966896003105255
Li 12.69085744709947 12.509953308540771 11.311466655458762
Li 13.353889861512238 7.892702385096537 11.835334106103472
Li 8.499494058300975 9.678606493810044 11.55419496482558
Li 12.151197505281832 14.792073860137007 10.037853750795923
Li 11.846238161646944 10.096328669296268 12.234092556797162
Li 8.493931691472207 11.180665037720113 8.82165057715032
Li 12.44454325798979 12.362867572779273 14.1610966309041
Li 11.61929878823144 12.121096265552255 8.574792186020575
Li 12.651899693626142 9.285224254834242 14.677324757748371
