24
Energy = -34.9127947 eV
Li 10.705646413459426 12.455416237593031 12.421290961100164
Li 12.157403511144759 10.430609710474275 14.430900648510981
Li 9.484962766764422 9.7217746427123 12.909500143423765
Li 12.444389241993601 13.74340747847059 10.195673112470242
Li 7.706940403838417 12.402203045622802 12.867152635106407
Li 13.90518066151544 12.314181480647278 12.623768690951007
Li 11.623620562625684 7.560799016064095 12.310053438614787
Li 9.265829320902837 13.758086201195374 10.043506138542973
Li 8.600674456093817 10.87461136058959 10.595660103810797
Li 14.501856540683622 9.296560042350075 12.624145504031649
Li 6.346663464117991 9.850810524637522 11.896546381264873
Li 11.578996459798068 12.897612899939235 7.251055154861783
Li 12.23488326578316 10.343587461687555 11.704923569730408
Li 8.50650729410854 11.926145848772261 7.843385569945449
Li 14.062092027574433 11.191469541064006 9.71244460009155
Li 8.449384244437946 7.730845469018987 10.743044900908806
Li 11.024533805989435 11.571340812167533 9.443468229427758
Li 13.49652602845412 8.183950176116646 10.002649631102775
Li 6.324489915903928 12.364102773106524 10.091235385637997
Li 9.451965937059924 9.198791546877208 7.635874594860959
Li 10.72154692085589 8.962502549010132 10.048278733102936
Li 11.052404041372347 6.68669782618383 8.738488781225945
Li 6.762826708783868 9.574586340182094 8.867954378977862
Li 12.34607027027992 9.626337307694856 7.698421969959305
