25
Energy = -36.41335436 eV
Li 9.309851225284897 10.099740775544937 7.541858530113057
Li 11.364710117013177 12.420192565864477 7.560828647484428
Li 10.22401015187815 7.505613870768763 9.00856706929231
Li 8.81056959201607 12.633667563326364 9.124227182000638
Li 8.230289437342448 9.41308295364559 10.46249324076281
Li 10.590748115826754 15.192856130971936 8.854959823539135
Li 10.741090384709834 10.257144889479791 9.881972374298316
Li 13.513183013048518 14.19448879181623 8.920791150657054
Li 13.670023091267183 11.119924999923986 9.093941230570724
Li 12.950557537692065 8.250097087430174 10.274917823458477
Li 14.248993434092162 13.067341555711728 11.705844044529188
Li 11.414650189141438 13.007581662143046 10.470208660489387
Li 12.845735566227864 10.718411943018724 11.688948445406112
Li 15.352176612913377 9.933816067438924 11.768662123051179
Li 9.421150998174562 14.80613594376599 11.664500159034853
Li 8.804288604798245 11.955125058351534 11.975788887112639
Li 10.392171541335372 7.830794448409123 11.963237997185287
Li 12.34969440033548 15.585062327879163 11.355535831938884
Li 13.062525702084319 8.28818711740437 13.252352466938566
Li 13.266118673594926 11.040143886033581 14.39392374614107
Li 11.47697744379929 13.240803623849125 13.239233130387362
Li 10.661682311015937 10.397349331391485 13.013766307855954
Li 8.225166281821036 9.306563098012584 13.6735137231575
Li 9.415801837633577 11.873041203027901 15.021712755373533
Li 10.8734891281897 9.078488496026829 15.303870040458076
