21
Energy = -30.2784722 eV
Li 11.916929714132648 11.665798804408274 7.491614638149765
Li 11.121883955280397 8.617985030872017 7.525486916197567
Li 8.801274317840758 11.267165479036267 7.502011799690525
Li 10.198118772021752 13.158637188225525 9.577839837259077
Li 13.28677613019358 10.224830867215966 9.825811564486457
Li 8.722766617391242 8.21890847045972 10.133923595776011
Li 13.240135920331188 13.318215240716706 9.90008170592952
Li 10.532438703561654 10.342553680975135 9.407466388364208
Li 7.840219401419292 11.109374246881913 10.284310099898931
Li 7.370455829768913 13.828149335374196 9.359920137938522
Li 9.948204096521417 7.702598506861585 13.2612090668476
Li 14.903559986611914 8.360491649067077 11.399990049065647
Li 11.726601187927628 7.849503718103859 10.54339371044276
Li 8.929773151580298 12.86012131904979 12.208652127603205
Li 11.76726836516282 14.261994978197732 12.52391165795588
Li 11.675390382837996 11.838522580049476 11.526564699507855
Li 7.6151094066490606 10.048398032504984 13.223472565253207
Li 14.251898090205497 11.712926593017114 12.422888865235722
Li 9.892300012476722 9.956465154009695 11.91720148173707
Li 12.54506350299553 9.341390270431456 12.777063439308876
Li 10.704648385492474 11.306784784944274 14.178001583754062
