26
Energy = -38.5961806 eV
Li 13.514207904022104 10.41460012808129 13.92420377859038
Li 14.801498100263213 8.361325707811677 11.991187654329302
Li 12.600269615272168 7.441389533701197 14.029320957536614
Li 13.98949176411585 11.14071068876863 10.868303196802389
Li 10.471681607561095 9.739622622784434 14.1661637267355
Li 11.3902328628445 11.909367748779667 12.261164536207218
Li 12.111142106718678 9.026460970644793 11.872732588273008
Li 12.561633861694489 6.324760538782055 11.093454424307316
Li 8.519659112691558 12.31880386658038 13.07067224344863
Li 9.872857333318551 7.177763077627424 12.44206722070534
Li 13.375456424007403 8.656519074454808 9.163066614527686
Li 11.406627821086722 10.723151355414482 9.510127222360486
Li 9.294975864250686 9.916262426867265 11.42097915028591
Li 13.398260107059514 11.540608922889698 7.801785329037232
Li 12.080734683167673 13.582392545096646 9.782050818231074
Li 10.190647472266845 14.75271119742302 12.01913252615322
Li 9.276309022440596 12.68293967266546 10.289827516700392
Li 10.409577708855123 7.875739313561681 9.572030739510208
Li 11.15252170932161 9.444336248837221 7.032504556284128
Li 7.454507008605793 8.041671916968797 10.393014839181802
Li 6.735303655005809 11.237460211748333 10.724854364252183
Li 7.262925826417207 14.356248313693005 11.042429781403111
Li 10.363485002591185 12.481675145832094 7.477236621381259
Li 8.5864667029676 10.21456360783522 8.565095741041642
Li 9.510429994531874 15.129634826799112 9.009012288647092
Li 7.351272850748115 12.9754001137743 8.21531627884574
