26
Energy = -38.09523353 eV
Li 12.764249748647972 10.65994187753885 7.014205475761294
Li 16.102663264171262 9.566876614581146 11.788198769835097
Li 14.861742348364082 11.24573743704317 9.439996042411686
Li 14.853199940223067 12.684404662447228 12.41980423232151
Li 12.952587914146273 13.346744931239947 10.137311812345182
Li 12.188271175264758 14.749651844328579 12.499644575425679
Li 10.865697662652742 13.168323856999386 8.012667786394319
Li 14.640838240500681 10.218316773265093 14.486148300542341
Li 9.78707149408669 13.895640934745456 10.622465641937803
Li 12.510425388002483 12.50697014979174 14.505603413546146
Li 11.810110008925387 10.8891164759866 9.477108605409581
Li 13.506262042047316 10.427390066303902 11.942623852485246
Li 9.484363459011465 13.63969683461974 13.709925399764137
Li 11.262376096827355 12.059422260221051 12.102246547986129
Li 9.534685506277208 10.872371367936529 7.2892111411709175
Li 13.683007189822115 8.64250586632141 9.727928144655884
Li 6.98125892800359 12.66202605363235 14.995951069637757
Li 9.863044136806053 11.785907511078522 15.924552760471371
Li 13.572928456139087 7.867057268707084 12.742269263344738
Li 7.689761050892601 13.242676879036225 8.511932330294506
Li 10.903546846538948 8.521710127552016 8.504523308954546
Li 8.846532927829843 11.009210048161455 13.285001615733176
Li 7.178594249717304 13.048784754600737 11.794416834232267
Li 9.053959724419702 11.251541575361832 10.157006900486511
Li 11.612766486852422 9.85591325817995 14.242756664104286
Li 10.883215695039796 9.108903238503883 11.490157630851039
