27
Energy = -39.18679408 eV
Li 12.839141103499223 10.062112293425026 6.608709380331994
Li 10.139660302763597 11.242062322023457 7.360569320208404
Li 10.780770913995315 8.50160837222861 8.336880164207656
Li 12.810276292259687 12.901376245231445 7.423906499602293
Li 14.044531009105178 8.485838606169969 8.793167034076099
Li 7.64927210697999 9.860664781593863 8.54286054052254
Li 14.970886251266544 11.279336609917255 8.59604206417091
Li 12.341773563741386 8.010505518380032 11.083202308148765
Li 7.877974403772582 13.05334534977358 8.031160156657965
Li 12.125665310387953 10.752206420390607 9.476227909951074
Li 9.513658616893007 8.785543361553184 11.006709171166296
Li 10.658239830009562 13.603068797768016 9.231668822242238
Li 6.812304749685912 9.606280623931992 11.639884291967572
Li 6.213602128974434 12.123150357485772 10.268754489168073
Li 8.998529160588708 11.500343296574846 10.312328519583561
Li 10.78896348916539 7.507661596826305 13.585091513117195
Li 13.417408636678172 13.001873528418159 10.678956353005978
Li 14.338651789572447 10.27581797272345 11.390850187395529
Li 13.682101878586904 8.647119041555298 13.784340065434064
Li 8.244931202465528 14.33114813823096 10.848636576964031
Li 11.440348953848146 10.282325514705017 12.679621157511287
Li 8.901159589795592 9.73520905054364 13.954038785944244
Li 10.809329788568114 13.003660177149635 12.10630877585844
Li 7.881073981094456 12.218709372219974 12.876194655118388
Li 13.342020102740028 11.860874114693189 13.881006105474519
Li 11.574085587246294 9.760552690884342 15.492055091602415
Li 10.303976022375243 12.31606085365563 14.869746130060324
