27
Energy = -39.71607541 eV
Li 6.794374125828298 11.133976966085028 12.837241127902855
Li 9.612124739386765 10.269801268331037 14.112420865813823
Li 9.022798507089894 13.242125535865577 13.547096733184196
Li 8.220053617764961 8.643989314208946 11.840783743498909
Li 10.427668082177254 7.344325545994959 13.597597568845005
Li 11.803188595579325 12.043036106447026 12.787201286712568
Li 7.311079150574923 13.545795288238748 10.985137052366015
Li 6.933776144162249 10.608601512977863 9.678676979758897
Li 9.137317888995197 11.454025612168557 11.388428767541372
Li 11.214244171925499 9.29926309684772 11.755078139112236
Li 10.443042401745576 14.070779867590582 10.906020244712874
Li 12.718456433139869 9.445831734270286 14.080313543332922
Li 7.526964422217774 7.6629427945109185 9.045329675069386
Li 13.58192108086724 13.237970650530594 10.621290478460741
Li 10.281402046452708 6.750922662766724 10.546389651782631
Li 8.908850005467599 12.601446883173015 8.597904197903222
Li 13.0749134109313 7.215173192197365 11.993744256660408
Li 11.870463182744295 13.975377892169107 8.24180537979551
Li 9.708065839658662 9.410734286011321 9.179335506074272
Li 8.4470651246831 9.8190268442127 6.821413069222955
Li 13.915173226336124 10.24178416173727 11.2081942832585
Li 10.076096549559105 7.08792763436511 7.545035187195837
Li 11.584011992283317 11.518701637658875 9.67945962309376
Li 12.611981587127364 8.378701068821703 9.241259369839174
Li 10.794582768967205 11.871946097966669 6.569207036277349
Li 13.721861553933682 11.288863491065152 8.041568242228427
Li 11.730411213899124 9.301795486146734 6.6880494673292805
