29
Energy = -43.59380998 eV
Li 13.108035873338695 12.17998274948489 7.8137855930943925
Li 11.281708408221153 9.543018322186764 8.157734079590714
Li 8.211810257645674 9.83490206642435 8.104337737596268
Li 10.063494679323068 12.480717729827964 8.673666639789102
Li 14.705686575875081 12.745540036320158 10.479468303282223
Li 12.170689048134703 14.386672374167626 10.036775349567343
Li 7.139100171811658 8.92661565575664 10.866144962273415
Li 12.565950093694822 6.7765846869846404 8.628600659653616
Li 9.513898819949551 7.418578622642692 9.476306508930891
Li 7.536273996231842 12.305709466463583 10.41944965571989
Li 14.108501433552403 9.415667219614484 9.242272140028977
Li 9.062729368666202 15.111905818908783 10.197544259707799
Li 12.204485993127598 11.438552043247126 10.294287715624323
Li 14.224818296658915 15.49350670173797 12.081926616693949
Li 9.561903542790596 10.108998587360269 10.506571184686473
Li 11.107590316811052 15.469574512374276 12.711261473451236
Li 11.978100770695113 8.421484434880925 10.861904900826092
Li 10.021052278773443 12.960683747009249 11.59385898801316
Li 14.254182802070222 6.988812798038231 11.270421743619272
Li 13.180310098288352 14.652585058128548 14.94614339738654
Li 14.071436556525853 10.126971234479067 12.211714151470552
Li 12.845638857153004 13.117216511429625 12.661399919685595
Li 10.566123964173643 13.048914888192117 14.479266042326735
Li 9.576276633575203 8.067575524564194 12.53204075898955
Li 8.086958526603256 14.250231264515902 12.952569231320664
Li 11.286931286235829 10.58840838996627 12.862434659381933
Li 12.575815019704345 8.15696294445778 13.786510579158357
Li 8.377061760201824 11.056696837259267 13.101166257976706
Li 13.173815468162333 11.4279581375347 14.954466710032333
