26
Energy = -37.62880233 eV
Li 13.044980689491037 12.901339655027202 11.604468271925885
Li 11.104741712276523 10.79285550135728 15.497644445035217
Li 10.61678065537611 8.750188584887335 12.785736591389407
Li 17.496352888439688 11.397037124993304 11.732080972498832
Li 12.947126648533075 10.496587595613084 13.218346531119597
Li 8.433927136246739 13.630420656775842 11.63308321657107
Li 11.014352907452732 14.890827311907875 12.314036893108787
Li 13.19799027751442 12.087547492749106 8.7594424212422
Li 8.643615741319325 10.509588411021005 11.023883464999184
Li 12.44966250055734 13.30250354305824 14.420897122207922
Li 8.47478929879785 10.245739929553695 14.206758119406029
Li 13.283820806572864 8.14780096370366 11.301085858830278
Li 14.280699506319976 15.260129449244909 12.600153973472635
Li 12.855892260410652 15.011232328134184 9.754763296276627
Li 15.626643391181238 9.39740640776458 13.306596755372155
Li 9.710397306071245 15.58930767941655 9.575248555114818
Li 15.329166744701812 12.437012168902655 13.366021647861224
Li 6.573070242753657 11.9576881347767 13.060010651438889
Li 15.5861705960124 13.501666326876768 10.423432408392642
Li 14.821205687954947 10.66127229103635 10.885228456410264
Li 10.280553662461807 8.085310772895747 9.875189006392292
Li 10.377248493456971 11.856339943999961 12.895806298916137
Li 9.01426374776827 13.249436137446128 14.727189507506942
Li 11.658795389936415 10.399348799721134 10.613499373209605
Li 10.058919941866394 10.844142948317403 8.246227545533374
Li 10.649604318884567 12.973377939689785 10.06869122083604
