28
Energy = -41.23714519 eV
Li 10.739927554333057 10.920997526967291 6.435466802001742
Li 12.707576065653923 10.053621991558163 8.57774176739058
Li 11.713193601279661 13.275318920942967 8.47039525851118
Li 14.255067039109724 12.356608278022188 9.504907602810528
Li 15.72869826860211 9.565267002423827 9.666983710993447
Li 10.413434485377381 8.271694185864485 8.408828933784504
Li 8.84864187563379 13.064875577932415 7.519269156473849
Li 13.219157931227707 7.581899555779127 10.541078532235247
Li 8.047043274490933 10.030166730532487 7.490270252535284
Li 15.757622211583818 11.831741886550073 11.891963081816169
Li 10.01256530654264 11.042232988304091 9.183387549180146
Li 9.687956739786596 13.924475724976043 10.584474952487586
Li 11.658793296591222 12.094810059240615 11.280802936236444
Li 13.62665758513063 10.190706948765296 11.25017851594933
Li 12.954906220273156 14.31732512195165 11.498423167751053
Li 15.304033292340074 8.851447794002455 12.68646184770477
Li 7.391416831114818 11.93697251912141 10.069727901464283
Li 7.432917805231439 13.590163019944463 12.729689132308321
Li 13.328328650907123 11.81462942052113 13.633117815767804
Li 10.863798614388802 9.272359417256872 11.24210210011106
Li 9.080125747239729 11.324461873236213 12.314607585319662
Li 10.534723291994094 13.602574063389403 13.593035297193866
Li 8.106327225161158 9.007624067300892 10.5192091455551
Li 12.35508673207693 8.638730276668872 13.472653285428894
Li 6.456642628391249 10.559609869074125 12.705006468422528
Li 10.83995732993622 10.828606959055527 14.629269340359755
Li 8.07807377211996 11.723409708923082 14.994737129490668
Li 8.95242040809776 8.800588662352656 13.647114508928887
