27
Energy = -39.61578852 eV
Li 7.647853097654159 12.965351763376548 15.587338262601147
Li 10.087706774193094 13.093724300432132 14.227463843601974
Li 11.35353040214794 14.761496885850661 12.233172057223333
Li 14.917737182749718 13.985106880562423 12.400490388050395
Li 10.26328080475408 11.188346679112712 16.315699647128575
Li 12.938237216655814 12.897491788258092 14.800096676488122
Li 13.231249576018074 10.082666155112161 16.004461084145056
Li 7.99671660265463 13.402801785716209 12.242019456748274
Li 13.17401526453219 14.415634717799534 9.762643545461344
Li 9.907957007472803 13.88035937779624 9.541386557585648
Li 12.794036515260338 12.526616845901383 11.904236138811731
Li 8.479633571610064 10.801106693154892 13.679561673355094
Li 10.287977234676868 11.874334248088921 11.56895737897947
Li 14.522124210228277 10.703405310030783 13.164452669889611
Li 11.877383034650363 11.954741407542146 9.105063113585382
Li 11.576654099349556 10.617631729875425 13.817563037423566
Li 11.931959769485513 14.000772914690513 7.048467144788845
Li 8.466745302528308 11.05036650777011 9.918060542790197
Li 14.68165073859847 11.797606394202727 9.859326907459844
Li 9.889124480224808 11.845130003148974 7.1626937292183595
Li 10.042863560957173 8.960904516089565 11.780384523347033
Li 12.575796858565639 9.853736427584666 11.066086897182792
Li 12.639473332518119 8.091115279398347 13.493798207098372
Li 10.93880858975332 9.34226690640735 8.691636780859454
Li 13.089587239151856 11.21961027269407 6.850179096776956
Li 12.15619333412817 7.135588317052618 10.499293813750832
Li 13.906310333886523 8.992162062599354 8.742230501089335
