25
Energy = -36.71662711 eV
Li 13.216237992293795 12.59197693092405 6.997633515914368
Li 12.99563567943386 9.518859945156908 7.498320586885134
Li 10.496334165148735 13.535097096173484 8.365307819056218
Li 9.978154757379057 10.480882200746912 8.28038958682212
Li 12.307698334785155 11.442340311419146 9.2170188281858
Li 15.022483471032713 11.76169583832921 9.686116409291618
Li 12.985655100137286 14.117562093843906 10.08130823214219
Li 10.807695978508567 10.110689922188493 11.052187034294697
Li 10.588246423525987 12.887429900708726 11.03644070270372
Li 13.669038382512754 9.194651466240654 10.452157555309649
Li 11.157159838001615 7.846483049094442 9.677600334204364
Li 8.27268529504102 11.33112701851022 11.181540337810134
Li 10.36045311419826 15.616912443085015 10.954734380236557
Li 13.014080601902108 11.673705587781436 11.980218304494786
Li 9.229240304730675 8.804642867820144 13.008096906975643
Li 10.401452912941853 11.429541768298348 13.523876226941475
Li 8.838175659648423 13.870640937825113 13.161169655106002
Li 15.25777814892486 10.442074406353807 12.846753080913462
Li 11.837905474977912 14.149215136572106 13.240468802381839
Li 14.8797357780943 13.460673039099389 12.628617194434671
Li 12.311925642942278 9.080751380534304 13.226366311211768
Li 13.015929945758849 11.720289665393427 14.8361184413212
Li 7.924914419997179 11.214989149260516 14.568660738443192
Li 10.420279346669943 9.917540851471697 15.79293083728931
Li 10.164018527358428 12.953142289114075 15.858883473575567
