29
Energy = -43.21400896 eV
Li 11.826892176284098 8.59153089102268 13.51614377800069
Li 13.247138059362905 10.628873278314215 15.27793813083483
Li 10.262157902214222 10.033954555824971 15.89139924943656
Li 14.929016566806938 9.234561162631787 13.10297941744157
Li 8.689976162305351 9.600827414638685 13.198771691552313
Li 10.618863650051546 9.74703012123625 11.020134262844193
Li 13.178019512891911 8.153827552562031 10.545036521871188
Li 11.510829620297292 12.992591554532488 15.791899264015779
Li 11.032498369269417 11.353062242538119 13.57723496666717
Li 13.973663819714409 8.569313558761685 7.569203699141003
Li 8.656657231565562 12.475920461304517 14.381261393258283
Li 13.67327442237053 12.973387055539659 13.484840576075056
Li 10.78112403674342 8.492445704096099 8.39884921453919
Li 7.7649277312677825 9.706668329956544 10.126592441645172
Li 12.680950580160571 10.580354621496628 8.943429465038138
Li 11.834298132860285 10.53540504450707 6.304530202193262
Li 6.372251292165891 11.524538145754462 12.27362012047456
Li 15.349705291413333 10.316965397395474 9.958340034362365
Li 7.164634590872888 12.76502248502781 9.505369568421141
Li 9.725034534859311 11.432905935667478 8.598311192105154
Li 8.882231209781361 11.986414798167258 11.528757885968583
Li 13.203255193816588 10.802978939431805 11.832268676607033
Li 14.611389012876955 11.643258303863908 7.259908457116233
Li 10.87619292998857 14.196793598971142 12.814831754042114
Li 14.078137131652781 13.336692835867618 10.254222686069054
Li 7.6719462748965075 14.372806451733819 12.110995991991983
Li 12.04707023052199 13.261059792123525 7.941580502619241
Li 9.724574365029687 14.473200465653859 9.79884601763795
Li 11.484707873472496 12.545174405687945 10.721443244533859
