29
Energy = -40.51753652 eV
Li 11.76813879650556 6.997851700084766 10.819131345799672
Li 13.422294469242605 8.465008983865356 8.885044783786947
Li 11.239772936286103 7.983499413565243 13.483129070277636
Li 13.001035443043937 9.534536822551178 11.542497665047419
Li 14.662608427079924 11.007434402162438 9.440749294413205
Li 12.34607234375878 9.959845501442171 6.637488816153221
Li 12.39054211938861 10.480421421332142 14.200433770220414
Li 14.231007640818232 12.105976155374128 12.019433121621708
Li 8.866911146291297 6.90635207383202 10.724167133168189
Li 10.564052012847583 8.205580400157913 8.469608332165476
Li 9.59962236362554 10.668086681300903 7.274457343218463
Li 10.100749416577182 9.49468131544282 11.341669698131902
Li 11.80651268551167 11.005626108181202 9.324793878613958
Li 8.28845788740139 7.827343687589618 13.411184028507098
Li 13.597067110279935 12.527018324243324 7.134996227358462
Li 11.305744010130942 12.157380147484895 12.062465376211279
Li 7.37695116530042 10.171335310600082 11.860983209578189
Li 13.28345539553146 13.115014813810363 14.438830148114421
Li 10.80695849940146 13.220992947986574 7.820763973528205
Li 9.061069011016636 11.797277991408881 9.890184525693728
Li 7.947430993114947 9.20872154709313 9.208949696059758
Li 13.222269841922861 13.706804358489222 9.643092056785191
Li 9.352063923080118 10.287016425258644 14.209409711922213
Li 10.330153089628434 14.340248805258486 10.381161952126876
Li 10.420541891262584 12.772081997881605 15.036622393115836
Li 8.4785805609744 12.691991399033709 12.57028813199492
Li 12.83676899422603 14.92891206189389 12.165235690703755
Li 10.037565074511903 14.943759512453 13.083862577527391
Li 11.920891899422852 15.44337267495581 15.049499917655007
