24
Energy = -32.61300755 eV
Li 10.988054750612498 10.867136850046068 7.868302106788878
Li 10.989780118824473 10.861762143244261 14.088673031945332
Li 12.502508032658067 8.853369550293497 9.438039352983722
Li 12.49391167313656 8.857332484478254 12.507446398922266
Li 13.40733232472152 11.628460478225342 9.458587371622711
Li 13.40800860063629 11.648993263993008 12.525157735909751
Li 10.978476905208922 13.391521306938275 9.397722667312571
Li 10.964683002234889 13.37202686496899 12.553492106125557
Li 8.586453432057501 11.632447245514422 9.43727744541087
Li 8.582026917569792 11.649277387491551 12.524485971663973
Li 9.52983280704123 8.86058564389076 9.39128119114247
Li 9.536828511237381 8.869636162152535 12.468050306793264
Li 11.008443119433341 10.903929233524433 10.973731821817543
Li 13.977032857356757 6.761943685060983 10.995514263069767
Li 14.964503487957515 9.550980866376277 11.009974328083889
Li 15.877418309244161 12.359811365121812 11.030126652429711
Li 13.466550265003299 14.137542460931535 10.882921178048287
Li 10.88125170788935 15.852411708576367 10.98385563258529
Li 8.463957474945461 14.181166439178913 10.977343021560394
Li 6.125533792006802 12.378734120885795 10.998154798285285
Li 7.055362300284643 9.582643058042672 10.983912371253401
Li 8.060174681357493 6.819576475892248 10.899640354621571
Li 11.0014486443843 6.784879154014701 10.948112434614302
Li 12.766712385534356 15.665272714766358 13.251828591318802
