24
Energy = -31.11151945 eV
Li 14.207984075059228 9.915185004496536 16.071741434922956
Li 15.366173900777177 11.995708461488487 14.726477256566435
Li 14.212509442548638 7.277615800595385 11.809213505758768
Li 10.976097485153828 14.929145870680275 8.26782918790726
Li 11.59586714340405 13.996433737714552 15.740620052054938
Li 10.535212031206662 12.315099657873796 7.641434259064832
Li 9.201553050618283 9.511125905152847 11.91434214103524
Li 14.33007942025552 11.692513990867475 11.9933470789582
Li 12.925162463244217 10.669419732805485 8.096873443377373
Li 10.452165618737062 9.878343675647862 9.300219470061519
Li 14.237386630183583 14.398769097015537 15.03120985999603
Li 9.83861821648371 13.258262679437113 10.330470957338598
Li 12.66565414162697 13.029593923776313 9.633565388945645
Li 8.307844869149722 10.849584709583894 7.603891114334094
Li 13.290534607029208 9.400928503979328 10.408613250561565
Li 11.58779131176656 15.586344498042115 10.97787260074258
Li 11.496035862222659 11.26978683734711 11.606000001471646
Li 12.455402259159788 11.50157111813031 14.336513100704396
Li 14.165983501389958 9.225223894597816 13.512098873210453
Li 10.931247252929152 13.824692386980082 13.128299516897423
Li 8.026957632995309 11.30526317143998 10.248115095603739
Li 13.579570306561312 14.292603150887683 12.40231279774856
Li 10.427880750902112 11.64679771858968 16.33676515027339
Li 9.519832215534391 11.479198577070626 13.828388679501462
