20
Energy = -28.62769434 eV
Li 11.882336585308812 11.511306834151114 7.116595837690075
Li 9.072745407887092 11.196900402986632 8.2388737686927
Li 11.321140288283157 9.198916038853966 9.109003371146617
Li 10.365171708090381 14.027003729320592 8.122972215317398
Li 11.284673457616055 14.698915138347756 11.06018137981
Li 11.21474956816605 12.051716047096217 9.822444647423433
Li 8.728185496663036 13.093283741588394 10.64929277499032
Li 13.92122366659906 10.850801224338355 9.465373321512484
Li 9.32978968059807 10.176414220708407 11.214152315132184
Li 15.06387455663653 10.288711531637954 12.257315273228238
Li 13.770470272268879 7.952018802135167 10.641960268241426
Li 12.285124093742336 14.287530375781728 14.119987047391701
Li 13.449033714006271 12.770135264703226 11.713822329822658
Li 10.732482386168574 12.329480826500504 12.772560861367221
Li 12.302454335304969 10.029293432690576 11.735335775110286
Li 8.067509589525265 11.72148125546897 13.471563255613155
Li 10.32329728577522 9.712792179373519 14.003337686052989
Li 10.853296797289637 7.602725640928918 11.738400009876665
Li 12.91790047608695 11.330526808275035 14.367435467654351
Li 10.334884780778298 12.39039065190782 15.599736540720794
