24
Energy = -34.69113998 eV
Li 10.251767505946232 10.19101369432381 13.011576635667032
Li 9.78858343374361 11.48009024457696 10.201444190347223
Li 15.190502829467485 11.69094237612879 11.250397523362489
Li 11.731464818068021 15.354973623520458 13.398847636561252
Li 9.19251280854103 14.080913811585708 11.349095661606702
Li 12.795700627955663 13.274421221412691 15.176757640110793
Li 12.616710051934923 8.480545259836468 14.333661913940778
Li 14.841838210100002 14.477502353235552 9.652030789590937
Li 7.722578297492775 11.630834759159107 12.287338183821618
Li 14.405448115389326 16.563211465368035 11.684370742734988
Li 13.259463147665508 11.069164279516317 13.671412569838477
Li 14.956916285020641 15.368118433147842 14.443601869075401
Li 10.01547438523927 13.932354451585272 8.484063667930855
Li 11.259977841623305 10.708427049462497 15.689323769589336
Li 12.698854754987693 9.868885439457259 11.27430928522389
Li 15.441857836747305 9.444206703002019 13.448130073278877
Li 16.757254887861077 14.447941208048553 12.060668834214459
Li 11.92937338152864 15.113872154188758 10.440999897648458
Li 12.592450142239382 12.467984744374656 9.6482076652203
Li 15.742682652292144 12.42060529776292 14.203619891337082
Li 9.703155559115537 12.950541606223386 14.266381526864087
Li 14.323024653071942 10.481560806894711 16.174720535173176
Li 11.446776015626341 12.622963647620358 12.212125263271536
Li 13.98779556872933 13.89902705041156 12.293965194207676
