28
Energy = -41.19069644 eV
Li 7.3479605055095 9.424795033186669 14.90456884571449
Li 6.636107000040943 11.583609190236922 12.722545825731865
Li 10.244480509909424 8.305146643872485 14.031492524581957
Li 9.406849160209319 11.221105819619238 13.81744847271797
Li 8.201349354737724 9.144043766862492 12.064738509151395
Li 8.326708236022773 14.04900861793634 13.041716776778138
Li 12.45749479915141 11.005545892521921 14.187932813520828
Li 11.93897147841649 12.323686489901231 11.714093883794096
Li 11.091782399440836 13.822409440033168 13.840320455962926
Li 6.755474479889625 10.785128376015956 9.827714645573813
Li 11.075370111987047 9.846731462189302 11.814575575246874
Li 9.62218154996345 9.802478034331607 9.503987820567366
Li 9.03176921940783 12.074615284001757 11.05803140118608
Li 14.013765977575142 13.851419345935568 12.785712549551869
Li 14.853675864849874 8.036903421454868 10.375105710391333
Li 8.623377764869382 12.28777395408192 8.016902144930505
Li 11.699301227606991 7.529519782951346 10.125956871011564
Li 13.152042553998932 8.371006491957031 12.700012067254683
Li 12.967515197132899 10.10534816334923 9.595754772458493
Li 10.472460210679726 14.660589151584446 10.854979869257972
Li 14.540865037795104 10.932172584856568 11.860751244039456
Li 7.086559111930948 13.816056790839285 10.309788509136052
Li 15.708138450384881 10.644236905052141 9.043810911362591
Li 11.12388218901422 9.928248624096673 7.118890730427449
Li 11.276370702936067 12.26043078550016 8.981042164353209
Li 13.847765861017473 8.508015412030609 7.596364223801436
Li 13.991436594868478 13.126068428251148 9.832176099816426
Li 13.577832342411488 11.602504576851015 7.139334925065238
