21
Energy = -30.33229739 eV
Li 9.865514011636431 11.055153341480409 7.663877160065348
Li 7.602651689673628 11.552831370505595 12.377247085193767
Li 9.328007533383461 9.120628607668923 12.348726658521835
Li 10.720850311925311 8.812032078744334 9.431474351922702
Li 11.724551606813947 7.345946633530651 11.874037799672298
Li 13.726617380217334 8.720152831930834 10.03402741491353
Li 14.314978841563782 9.057736994213101 12.924080246352744
Li 11.701335271854758 9.170664230562668 14.314897765624501
Li 12.000449196794865 10.081668936871248 11.717013919250727
Li 12.40516009334217 11.21350385879808 8.979871185489573
Li 10.239372303161167 11.679852407563788 13.519673010493591
Li 9.574949696205291 11.35053115748478 10.421536775893108
Li 9.29969968129065 13.936716834959645 11.844539349086796
Li 10.682977212438312 13.634395165652714 8.913742135272257
Li 11.979583227509671 12.885967415622796 11.413232562745115
Li 13.698111415114907 13.870928673012594 9.476071098002805
Li 11.649688555896484 14.323753873094187 13.756352425441355
Li 11.671775166643625 15.587997295024943 10.980597304423666
Li 14.272312333894224 14.173830183811567 12.370896368268275
Li 13.259941672803624 11.734098596153048 13.8325421352986
Li 14.557728038914393 11.446814226202068 11.098077097199688
