24
Energy = -29.01240153 eV
Li 7.03387362267224 7.679153005333853 8.555373205676648
Li 7.607117920086309 10.602852085053954 8.644331052472285
Li 8.953476476611007 13.25062187938315 9.162283157289785
Li 7.474274908213357 11.785764212223969 11.495838769919345
Li 9.840021824527135 8.578784625370263 8.378830664250865
Li 7.891902676749223 8.899247189663821 11.100671692990076
Li 8.357094124801732 12.600760692667299 14.217476442749504
Li 9.364088891681092 10.126695439268406 13.188616902020835
Li 10.300739172836883 11.142006910867293 7.412006818776423
Li 9.958597957438796 10.797620675984069 10.312265322975286
Li 9.193374642421087 6.482227210034139 10.139080833559708
Li 10.018775213151322 13.182728787194279 11.931302642404829
Li 12.800286447077376 13.780570490312108 12.75869407325449
Li 10.812303530593422 8.345944438893888 11.689233439991341
Li 11.142631668832983 13.908389044906777 7.366982947781365
Li 11.21973072547145 11.985433732735228 14.429198942391297
Li 12.029446146417294 13.083590987743477 9.987978097268401
Li 12.047095076357877 6.779726227854643 9.66848796706713
Li 12.308257546562583 9.600427892118923 9.04173479566293
Li 12.201224172406107 9.236154185344343 14.051046629681007
Li 12.260745526286518 10.993973132814318 11.843809644985122
Li 13.191807373449707 11.979175562695154 7.608950081508625
Li 13.783026958749286 8.477829625173767 11.485262003380063
Li 14.545805351779025 11.057488265285695 10.025803234799392
