28
Energy = -41.72160478 eV
Li 9.704923618519219 9.942600425163793 16.233014839566412
Li 10.470353048069017 10.046613443541268 13.669984131055777
Li 9.181472564941688 12.430187542630726 14.421942502673616
Li 8.916948414937439 7.872213378421997 13.924823046413543
Li 12.10810176091732 11.847092048420466 15.18889447936022
Li 8.957504743052251 8.26249868389349 10.47662208369734
Li 9.077962398977304 13.339348475682378 11.251130812039575
Li 8.05597491922185 10.463064405880942 12.292489748906624
Li 8.226408058411007 11.267013324184065 9.000983507900763
Li 12.25936630883558 8.451655833286384 15.008720755199857
Li 11.274902204912804 12.452377007329304 12.481244329338297
Li 10.47751231241978 10.443001331304602 10.829569401414592
Li 10.723499714988774 12.543599234333064 8.875107110389415
Li 11.11746152316207 14.818331053223833 13.64526537622229
Li 14.518131888380694 7.950431181328714 12.574641286844228
Li 10.11218742093836 12.28029465139192 6.3044287792345
Li 11.456790613274975 7.871205137954775 12.171384032852812
Li 13.175251509961056 10.325522514014436 12.721266055139184
Li 12.923720869986422 11.978368700726454 10.30060956470071
Li 11.767551613565495 14.695786213592253 10.478377307262766
Li 13.944562463839972 13.382395504594502 12.528706398511481
Li 9.148417985251278 14.642072022910252 8.27350483013287
Li 15.394959643729472 10.878808104885072 10.692615056491087
Li 10.679260436658303 9.73515117714184 8.134446470463612
Li 13.183107628185413 11.525719418232047 7.596429641973181
Li 12.999234166939017 9.123480606012915 10.025435980010982
Li 12.1440381113481 14.377411550473388 7.46280276465968
Li 14.610709110217476 13.827212709956747 9.343969091463457
