34
Energy = -52.05260305 eV
Li 11.90845403273262 12.077125621048053 14.147983632264822
Li 13.07695228593758 12.362164091572643 9.24650976330639
Li 12.701373895320497 15.29817248579479 10.396596351493345
Li 9.759546164119847 10.529125117870482 13.47343401866475
Li 11.866995283166407 14.126772656596154 16.37620633151426
Li 15.509849317367976 11.066067107635321 10.900466928323674
Li 12.447705258398074 9.371443288793417 14.808147264152433
Li 15.495657317240797 9.246919093067838 15.811888625301078
Li 14.794506037623206 15.595097508128427 12.500288970860181
Li 17.36320355662983 10.311172644222513 13.4052163216909
Li 13.741657990347225 16.313865779442953 15.255026049364142
Li 16.591291047305067 13.197918974363963 12.747762921955003
Li 14.87092948945805 8.550358761714293 12.837488074146911
Li 16.563264472759286 12.253501036399436 15.79043390173157
Li 12.698413752928742 16.77106295025521 17.826744570279175
Li 17.483043700779916 16.03706256919024 11.856551613027015
Li 14.700691655214563 11.027345368828474 13.832608829102398
Li 12.501141000495883 10.37727118115876 11.784121416449914
Li 14.829091988393541 14.502343698944298 17.37069742929678
Li 13.647803720250609 12.977962410753133 11.87927363485861
Li 10.81249128414107 16.711283350764877 15.256217373891554
Li 13.605809022410883 11.59549774993492 16.629317017159124
Li 15.541591966222713 14.255748009751416 10.008905011677726
Li 15.590940676051934 17.566720462701443 16.880016255350778
Li 13.13335568162507 18.880227266664424 15.554781508162021
Li 9.53405931094976 13.589973921823505 14.454622871817
Li 12.00400103082586 14.885773048315233 13.352802993665165
Li 15.629942196323771 18.01735007068356 13.635868495860926
Li 15.030796957361762 17.404010519056932 10.450837203026584
Li 14.310932636745774 13.64461753348073 14.647658561065548
Li 16.634418462537887 15.378733068110574 14.874618071556462
Li 10.44112208687031 11.325453248205086 16.406351596303082
Li 12.712034452532315 17.600489396929383 12.66028085442681
Li 10.755876456893011 12.883622698131454 11.500727605360645
