31
Energy = -46.44875119 eV
Li 15.032267570573337 12.711072799593005 9.89360063147302
Li 14.396452146996774 9.69785370317591 9.071492769033956
Li 14.78460762971045 12.565690395000273 13.103189677189302
Li 13.391015335675545 7.725809171342861 11.71726419145779
Li 11.98176441162842 9.74762246666372 7.031866172172864
Li 14.228817070220863 12.065823679637829 6.894839459172004
Li 12.609337761543495 13.722306464415144 11.279226657961077
Li 11.52628466254487 9.069348273978594 9.928048192300633
Li 13.531917854917744 9.554728860046204 14.298839596301269
Li 12.955639226720814 14.598185496945014 8.425204770168932
Li 11.216563814838418 12.737421526462995 6.553162054118962
Li 13.330859517041528 10.78173733486639 11.547157643815737
Li 12.426513224166944 11.835132785690844 8.889265230060877
Li 11.779439526254885 11.938221439566046 13.790873942729366
Li 11.692561272324284 6.905414040684838 14.339791829429682
Li 10.90510000769465 16.175179627198624 10.473972946975083
Li 11.115780628138166 9.10572684177176 12.89769480342506
Li 10.392758500001431 6.6705039176424 11.458025833041448
Li 10.173474003652078 13.68170846929665 9.367574020943673
Li 9.747420894150812 13.92264633404707 12.333952449900558
Li 10.694192773015752 9.55493911942966 15.6183880033207
Li 9.585425142514298 10.804140181237912 8.507931644885614
Li 8.678601362523906 7.927335831515814 13.803493269020173
Li 10.594590121969444 11.45291516191532 11.169931192579863
Li 9.632660602933878 7.653460157136534 8.485112103112586
Li 8.68889820804722 9.078276831352348 11.030289298839138
Li 8.902479522155494 10.96456928918199 13.463989377093673
Li 7.837657132968499 15.113923845918317 10.62871682891843
Li 6.325824072770881 10.027559124653976 12.815506328416447
Li 7.802070772654665 12.012141933607024 10.874158935329142
Li 6.889449106280059 13.196522651803622 13.281491141929038
