33
Energy = -50.37527862 eV
Li 15.143753596372735 11.27087314996952 10.966034594474566
Li 14.902291126186471 13.601237665900216 8.833169203022855
Li 16.047783936217765 11.728934675350706 13.95778744535329
Li 13.024724067561387 15.82447856249486 9.91905931523145
Li 15.023776538307846 14.208915632097154 11.935804485765045
Li 14.406032311673604 14.151221857948041 15.024480354502646
Li 12.121125782223718 14.971078299870818 12.738989196626466
Li 14.086028787258277 8.376507862596267 10.06330853959846
Li 13.25479260868457 10.97130479009692 8.42904048582651
Li 11.52361689863942 13.52575146745955 15.099908797117896
Li 12.396884978341928 10.287207366300398 11.158617361879287
Li 11.793089116662845 13.708303891412447 7.864769491201356
Li 10.445958775243248 11.65335270260525 9.441584360709506
Li 13.417216588129046 12.171563890358753 13.291593158902945
Li 8.911451801172882 14.056736762538863 13.52081573584354
Li 12.795491730190223 13.141405957883688 10.5539825808425
Li 14.281237821457857 9.311829409509361 13.160102638217364
Li 11.140281133166326 8.731902198159844 8.98377117259219
Li 13.421982184078692 11.146788015393541 15.776610629323601
Li 10.096774998321056 14.44760016626802 10.45434993268458
Li 10.601364745187404 10.919288378948261 6.765540462526552
Li 8.633808780729174 13.057855525793688 7.902391881366749
Li 9.495094681273601 9.622524909562687 11.36017419322737
Li 9.950825906784692 11.256111387686424 15.575935819266991
Li 10.583375254447262 12.20979228565142 12.49276405758709
Li 11.568774449751059 7.53138851190707 11.767196707245532
Li 7.940772062043048 12.22845366506712 10.834628538207893
Li 11.405709492297637 9.713097164741265 13.824503617470844
Li 8.309947321578829 9.950345917187649 8.721802572000488
Li 8.01811913028225 10.990571721173762 13.462910599713767
Li 6.7394805096941965 9.230077270779507 11.370292666464875
Li 8.84504572323846 7.118469723527579 10.387942843998573
Li 8.850068269182945 8.009025054214002 13.476121159511484
