38
Energy = -58.86101628 eV
Li 12.06841225279614 16.940387997500846 10.446420723275097
Li 13.555273921116079 15.748667722470914 13.083537808492775
Li 10.34665145634358 15.92956239149808 13.022148146389982
Li 14.524826983126907 13.385894343282045 15.269902949671211
Li 11.782833976103689 13.56283842585994 14.185698350409567
Li 9.439702605388106 15.081027329641486 9.911723632213244
Li 14.54265828895981 14.861511897889976 10.229468953838435
Li 11.929293085312299 14.438987708207964 8.251118020535733
Li 9.031268588146276 13.48067112297679 15.289356484482626
Li 9.088363153292782 13.031440223068076 7.370089570067446
Li 11.903128755326723 14.3436935547031 11.210131071031771
Li 11.4315740554756 12.042922767575984 16.706894249119703
Li 14.162892616598974 12.898960845435012 12.467390162351734
Li 9.485462891056898 13.187107460900311 12.325671809842508
Li 16.430976797640614 14.229193514374625 12.81991677851712
Li 13.339660808383465 12.187653235422184 9.682395426084023
Li 11.819904689079168 11.545838168130913 12.02382658615537
Li 13.240165259871485 10.78740146995173 14.455288116615352
Li 8.45021843558616 10.570851124976043 16.44435362509118
Li 16.1733216243428 11.94208582860328 10.528846397998677
Li 16.168946698758287 11.05287079069276 13.489023510023284
Li 10.453862655594337 12.328664587522312 9.593190356237946
Li 7.470305260634474 11.300575637819389 13.51117481851782
Li 14.796817622281218 8.175957971650305 13.573482032305416
Li 11.788745954720163 11.304771916753058 7.27942983345642
Li 14.235446915757915 10.033360573619085 11.596066967937121
Li 10.213172215324638 11.011647720659182 14.355376317099584
Li 14.64243883877534 9.694930352998275 8.74259327262621
Li 7.6461670306531735 12.261244857524336 10.220890423354007
Li 16.61797547092198 8.809135028000814 11.11531756369581
Li 11.826767965302468 9.607582220275324 9.793682647409067
Li 9.07816942315722 10.02855863331786 8.611507350737167
Li 7.073903798503107 9.192321243511467 11.0911622638031
Li 9.450215660513177 10.292216044399856 11.558546534353434
Li 13.686625430357786 7.425278664432661 10.738203977127965
Li 11.764573857239203 8.754535165370632 12.816338435274327
Li 8.761564216505306 8.55498437652076 13.766784232979273
Li 9.834337482547175 7.598656262785128 10.76066975647656
