31
Energy = -46.31622692 eV
Li 13.211476784728557 11.06277967618966 16.194180539357227
Li 10.319607186944355 12.452114897564538 16.979532863189032
Li 10.460425752603197 9.498354760173308 16.130969607221314
Li 12.82279690832997 9.011985540479444 13.842539042757942
Li 12.763683879063867 13.987554497743183 15.265872604070935
Li 13.311316346523673 11.884292013483662 13.274792800688653
Li 8.252317234375576 11.690536867969161 14.287774313907006
Li 11.053043194798972 11.67338539127084 14.554187796580534
Li 9.785183056223225 14.206082759061012 14.611902002580534
Li 12.010734372465498 9.935819102538705 11.315618694090276
Li 9.88781459315891 9.38382634326506 13.298729743500541
Li 14.836220840726693 14.096412806066537 12.27131577032597
Li 15.104883458823343 10.704176564725348 11.509549142755324
Li 12.971623520770043 12.619959882956008 10.533160862574393
Li 15.459533263469947 13.053335594323661 9.401401217390854
Li 13.772240336940426 10.362567669654913 8.851533467736202
Li 11.719390126211104 14.437099767332946 12.444423355813568
Li 13.877772796863232 7.95397230325329 10.820633300869721
Li 11.05679458350437 7.156208876439355 11.724290505836631
Li 10.148739215747831 12.0473469254305 11.850077210848879
Li 13.407200860854612 15.326104297303072 9.906918289596293
Li 8.35965098970469 14.199311909229692 11.983355885178058
Li 12.753451802775714 13.146404791984706 7.70968042760856
Li 10.823897231431078 11.228456669997474 8.974433781820684
Li 10.4706842384269 14.090403783317498 9.66413164562501
Li 11.414900135364512 8.27590645263175 8.886606627213853
Li 11.770346107176797 10.402496166423317 6.542313134846569
Li 9.092298334702095 9.238714016719573 10.520154665373402
Li 8.132597403293454 12.004733841225875 9.707896935559175
Li 9.664178931568665 12.711848588513806 6.962088760459232
Li 8.92207509978601 9.737875672723701 7.54848578503066
