36
Energy = -54.42434533 eV
Li 9.26170809507097 8.802516338301121 14.803448807182725
Li 10.452926531426176 11.421071263717327 15.01173118183868
Li 7.137992736800868 10.926889666298742 14.1013955455936
Li 9.05189024429212 13.39039264777848 13.408086077604892
Li 12.415672058254442 8.868678351705894 15.10717505196009
Li 11.428678714925413 14.35353298927216 15.01992866992738
Li 10.808303094714859 6.744102828540524 13.227371531417408
Li 13.357712396609548 12.010634849841505 15.181673332709726
Li 8.140970086061373 8.194673167679687 12.179347863769602
Li 13.957630028889998 10.306322923179309 13.035915466773098
Li 6.5278134414490525 12.976479792078855 11.714804672594894
Li 8.550288176955725 10.932734281502638 11.818408422566282
Li 5.904680060877155 10.033426801669412 11.181301039994738
Li 11.783431016686375 12.43465152012504 12.565945484617137
Li 13.397998618018098 7.7305043753356335 12.154131866479435
Li 11.441732978683534 15.242901371919565 12.043070775355142
Li 11.042018980885624 9.613647217725319 12.71385448452929
Li 13.950708538749732 14.310206495636432 13.371571472787624
Li 14.031277057106356 15.185263619768051 10.197556941291836
Li 7.494263190510977 11.7855059076285 9.133525103720597
Li 14.59041825817062 12.384589671537949 11.39139170995549
Li 12.233562406904504 13.203975211061875 9.742119275709719
Li 14.916241194415745 12.21038014415348 8.622351157727948
Li 13.00873896392498 10.10771737780315 10.064381047522508
Li 15.610936121146425 9.35862121328137 10.441359316039975
Li 8.170412443945212 9.004098233121946 9.245553195252555
Li 10.996625056122143 15.6654851703093 9.02170541706608
Li 10.652010696735868 7.988798268848574 10.506187721813339
Li 10.373582817335713 10.932239675503974 9.761749445983208
Li 9.398281454727112 13.594786615583853 10.561631478544607
Li 13.258219403981544 7.302651568052167 9.24427976225997
Li 12.387101313263715 11.457897178131399 7.429995534570441
Li 13.048870156213708 14.339093620356683 7.25927351963511
Li 14.392930622934287 9.364610545466235 7.498689887702583
Li 9.986230802667858 12.990149155821921 7.6611820715283505
Li 11.041546115024072 8.971783631162202 7.711113413827836
