39
Energy = -60.25229332 eV
Li 12.76900552378468 15.573429367286204 14.535202937601564
Li 9.768221290912328 15.197554464224341 15.670779294828563
Li 10.007725443431921 16.922102406167816 13.148273372471037
Li 15.303831622315043 14.692355345725124 12.437994417505147
Li 11.97822693724686 12.906537022751293 15.618482499300569
Li 12.554812491900634 15.899131316820936 11.498466825440902
Li 16.813007506249164 12.221621724583063 9.185336589761137
Li 9.685135613145382 15.284923856744772 10.515561547517667
Li 7.893188632540747 14.48811821773636 13.068268035309483
Li 13.067871981078591 13.209570176283624 12.83486081411949
Li 14.864060303499416 14.855264196007806 9.423831272429668
Li 9.064647317221878 12.176665281556426 15.293304994455168
Li 10.541489592983766 14.22216011514342 13.223038128167518
Li 12.107916683486255 15.809683201497332 8.31180246548883
Li 14.964146898652261 13.086084761749564 15.108145859967019
Li 11.94336373445653 9.85282188706319 15.791583409296745
Li 10.19497432197308 13.363443308429488 8.031054105764767
Li 12.181319124561906 13.635362648492581 10.026881616571806
Li 9.970005169625908 12.479385743433316 11.019996027246126
Li 13.920544502097696 10.751169635328809 13.852519564078566
Li 14.60834817249043 12.338327877149231 10.629355740990292
Li 8.192983169728832 11.008713463606288 9.371708759472751
Li 12.496498229210623 10.81858839489324 11.184449274024338
Li 10.899470942799956 11.29086847580812 13.455893007301816
Li 9.884004638600773 9.540092777085308 11.209348223149936
Li 14.3790009500214 7.8836268343334 14.317776778937496
Li 13.507919109353857 12.865894150046474 7.715675882437658
Li 9.219507028035192 9.039700524062653 14.068750988645073
Li 16.46051460025368 11.860932357097493 12.634629728648866
Li 7.960018595082427 11.369537090925935 12.564862247051341
Li 11.28142436062755 10.725452212086916 8.744600285936524
Li 14.350604947945069 10.20219898633424 8.859857992412254
Li 11.982224256114597 8.68034914647534 13.016479193439585
Li 9.92244443328469 6.816139022565299 11.786460912489721
Li 16.287118079301994 10.110664670817469 15.13638427600213
Li 9.47672138964168 8.142777128515672 8.92186829582736
Li 7.376589751490674 8.554998444546218 11.274338757088366
Li 15.115231710351335 9.38140823805273 11.713144293198914
Li 12.399973932261194 8.136972654985351 10.21796529506132
