31
Energy = -46.5054842 eV
Li 17.11339692130057 9.971468275972668 16.362452606770525
Li 11.909921944591662 11.2927092401806 15.834641613295158
Li 14.327029791043834 17.866211662760264 12.019207148770006
Li 17.886952979082658 12.840094394086565 14.9482091779579
Li 11.475550494699283 10.810636247106828 12.605298931907953
Li 16.83489559235819 10.628627102637136 13.439905632625814
Li 10.560419827098297 14.032275613249281 13.052972439016875
Li 17.114694782459612 15.656721081245788 15.859758303079214
Li 11.71494795102413 14.592453806605961 15.734925703250079
Li 14.499005114489668 14.534967279606832 15.831761458109586
Li 13.989430737597988 9.6336476745415 14.3078844948909
Li 15.841150860530213 18.337776788695166 16.7703092367713
Li 14.858919760554016 17.01153274618143 14.566595674336442
Li 17.633339965392295 13.09787935195808 11.712856097706547
Li 16.968248126104456 16.123817933723654 12.810661306549976
Li 16.461854912306322 12.81764194081668 17.732714615267717
Li 14.931248257535486 14.939921771421975 10.85587839911607
Li 15.695726741467286 13.77756210925998 13.476180522948798
Li 13.262398982915954 15.251516703949118 13.039872675788866
Li 11.798279110850663 16.282380215313744 10.912284415785276
Li 13.031689757873812 12.628409834778312 13.850108271958513
Li 12.364540625028784 13.289847366649946 10.949167604313114
Li 13.014201214503005 17.035524340794872 16.728894835389433
Li 16.70152403106101 18.973761926756787 13.878844841314987
Li 13.721627292713753 19.46482363103863 14.759868098835488
Li 15.122678133798914 11.77125342561814 15.559450306680652
Li 13.389373308899703 13.093231068929212 17.877437030950965
Li 14.31406359799221 10.132049656203085 17.587225346208577
Li 14.667398025845744 11.654897925858323 11.860879264715445
Li 11.697906510561824 17.217711057331307 13.99656039892678
Li 15.20367144601291 15.631732547153403 18.267822251798727
