39
Energy = -60.34980329 eV
Li 14.741420452497284 10.80391107578742 14.643328381624205
Li 16.399544182478877 13.195544671429015 13.560401702901103
Li 11.718738422735523 11.610964864273818 15.967371720800168
Li 13.33996780231665 13.58127459665979 14.112409991246997
Li 16.780813628926616 10.078726920108442 12.442215794190984
Li 10.900538212695176 14.756907873286607 15.76169409366148
Li 12.637412466330796 8.50708610306233 14.745587497488991
Li 8.63034232905414 12.613023947834245 15.865668216656845
Li 15.713905796035979 7.683770188957294 14.112466333001791
Li 12.034934527307882 13.156249294317014 11.426794696889548
Li 14.598741867549252 11.941303940644664 11.846155134048777
Li 9.562280280778747 10.060590401740582 14.251408977718667
Li 12.253604461394621 10.82740733828416 13.256998452278848
Li 14.245154112667723 14.914318080770947 11.489110874197227
Li 15.18369684073653 10.054309342164851 9.550389105853565
Li 8.34634825239586 15.030545514604182 13.569075595089426
Li 10.357078747729767 12.950781203819025 13.789973297508782
Li 16.065180421348465 7.2950974259070085 11.089439451772629
Li 11.309778636239768 15.624485054088792 12.67352933424362
Li 11.09925458799811 8.412617518673747 11.980043696410599
Li 14.171834807615374 8.922734920718032 12.183633946879867
Li 13.535000260700139 6.279653912959273 12.488021586877498
Li 7.561914436490993 12.094989742338619 12.841904934836096
Li 8.843496767020845 16.542688925627694 10.723616645303728
Li 9.278804803729695 13.912003174872828 11.111324805235332
Li 6.634067732414558 14.482863580073921 10.824777405397688
Li 11.569632653202525 15.2010769467039 9.524547093896492
Li 13.118122108725977 7.805777841023071 9.61805445005973
Li 9.895717253601058 11.080073157990315 11.53409024354518
Li 13.679754466149658 12.929785280889933 9.015639093666241
Li 12.408805185532271 10.494017241179357 7.496879981298548
Li 12.532231295204342 10.463884881581954 10.366318370859886
Li 9.989148488759977 9.401891291039629 9.161627066116324
Li 7.806734674086182 11.66622563562875 9.645236563384074
Li 8.77951026731195 14.348854231056329 8.328923619923325
Li 10.714955392460295 12.315205380788175 8.970390496544645
Li 9.312792153903304 11.412891082044764 6.809387955295998
Li 11.591934618132933 13.565185017046927 6.727978339609927
Li 7.896854423304026 9.197433564577146 11.60806913061094
