33
Energy = -50.21500257 eV
Li 12.680592624976704 15.377549004741878 12.757419776861564
Li 15.790614971111921 14.541697132927958 12.60452753505861
Li 11.013396580060489 16.94352930186354 10.615730631531898
Li 13.872230206954134 15.558125757060365 9.916428268338514
Li 11.291770846155426 15.529822028121249 7.836235065061381
Li 15.84293901408885 11.476408697373678 12.560274355228971
Li 16.021117713665568 13.206996401706332 9.75520895492531
Li 9.565270918981689 15.038920766140125 12.606558507231512
Li 16.763369813614695 12.624214991752215 15.096770503665798
Li 13.105612478626638 12.987901603572935 8.405662525397167
Li 9.892419522121035 12.627181273237351 8.180863533076423
Li 13.936371644427942 12.952798146399278 14.324741228100267
Li 13.72162005511766 13.082515790470794 11.235543043492244
Li 11.32369429228801 12.845127724368208 12.84755979683077
Li 11.149759751666815 14.254504193776732 10.245640621896404
Li 8.6829270191437 15.216806411450172 9.478291815471446
Li 14.291946899843236 10.496398384016777 9.978317903240898
Li 11.186935483141923 14.2312328343013 15.208569837323049
Li 10.039601333543292 10.160110958226237 12.624742460776636
Li 14.641237192315593 10.15035196409603 15.034296165602061
Li 11.569018366999432 11.053821524112278 15.131789348187452
Li 11.467150876736111 11.369128105652178 10.310100043332778
Li 8.803396132353058 12.183181923585684 14.196652455480347
Li 13.051513350331094 10.584813432002441 12.658253687832882
Li 8.805393605878084 12.42085837728385 11.07424939384323
Li 9.114931226357546 9.64608039717172 9.891035604814066
Li 11.9220939021721 8.54881787491782 10.849736300417382
Li 14.621255771513184 8.295818328152924 12.349188450253648
Li 9.060135364665717 9.102665120145303 14.999583598434787
Li 9.422362240150514 7.480139528390338 12.311288720037687
Li 7.328532473174732 9.890736804033487 12.524702318195446
Li 11.96062115833907 8.295024769054436 13.975738463842628
Li 12.333818683470106 6.032530517759709 12.138019960956644
