35
Energy = -54.04263168 eV
Li 14.387343974569722 12.840715928977897 8.735693588488706
Li 16.93154756013071 11.597576757700528 10.111195783970826
Li 14.791722470030937 9.620634757855854 8.744858678485118
Li 12.49174381276478 13.32134539914895 10.862202845372622
Li 15.18604659782305 13.983227919223092 11.496974409660297
Li 13.216869708362054 15.651580664774844 9.640607895969376
Li 9.81030172589844 12.13363246168916 10.422500793070606
Li 12.193865578835766 10.805298026976631 9.240666628189466
Li 16.066355084706565 8.949029414223867 11.506332854255072
Li 14.473016448546106 11.123830696364275 11.185100961882315
Li 10.092043691467557 15.08465082368129 10.706676276728436
Li 16.305443885457567 11.533595837498734 13.182606133300585
Li 12.372547151331542 15.502204083373408 12.78368901991966
Li 11.240165280839475 13.475084384672348 8.251903285157407
Li 12.906644652135892 8.415072646818688 10.947086472055796
Li 10.469388824559202 13.343649644230114 13.068354677196197
Li 13.383167238931435 12.670715103463396 13.691685035143978
Li 7.749586921382784 13.459631573989157 11.959099238495945
Li 11.272265834615036 14.223079495633614 15.513466016199352
Li 13.772583873599022 9.643986073176599 13.696959889757157
Li 11.410380211574681 8.106592535804662 8.240448052952782
Li 7.982758618202558 13.366010108968476 8.823119381330784
Li 11.745968649852776 10.839595800520966 12.154835953796727
Li 9.227186528801925 15.706750732977808 13.679109381977264
Li 9.977123790680038 9.16220200495662 10.458685914493506
Li 9.428659161141688 10.610199738345196 7.990221014415223
Li 10.36325194819562 6.471914735512811 10.72023221626265
Li 11.001643515068608 11.018802515802962 14.961037641325458
Li 8.927256610550142 10.733183397585183 12.83563136344762
Li 8.485847960674409 12.79253224516706 15.008197272049301
Li 10.709526499019296 8.402277874369389 13.309668441812493
Li 8.256690049618383 7.81574490376197 8.840040007873268
Li 7.358623541613017 10.592578735051596 10.251378946867568
Li 8.312479363487604 9.34600910509235 15.123387120649129
Li 7.935872092547929 8.000601332192904 12.09178651958228
