33
Energy = -48.96679462 eV
Li 11.799615749338315 17.47647207942857 10.518478938855734
Li 10.10435723260101 15.288705187989784 11.895146075700389
Li 13.005611254200746 15.24483679475416 12.027297504035209
Li 11.583145248126195 14.807497501931923 9.395230446647766
Li 8.46632058643374 12.96708198465939 13.032087859121086
Li 11.324160315717839 13.824477788625243 14.320670429583265
Li 14.34561324619442 15.510317332676026 9.492847669854681
Li 9.075916078733469 13.277366266393184 9.819200637876193
Li 13.254299413905262 12.655510679465827 8.654213724124316
Li 11.774322286053968 12.613104273748347 11.42279657831525
Li 14.329053559938998 13.09364996386227 14.067386509145352
Li 9.204711096533774 11.872626242879646 15.898239848973267
Li 10.642749427577742 12.211292823138985 7.164896814234459
Li 6.57263218128712 11.486559454240359 10.983370626205204
Li 10.65804527584477 11.2660180321342 13.683223848141099
Li 12.38496614207581 11.288295899052901 15.962992422757017
Li 14.672895509735358 12.98257115962183 11.158820518976107
Li 15.382380832715194 10.414879599013979 15.35892486668069
Li 7.970777645827493 9.929052757517335 13.400935718778248
Li 13.448819917189775 10.652318691540167 13.2570601664402
Li 8.174302642266765 10.779594438083159 8.46514035047987
Li 16.066206275891634 10.683066878567962 12.453733796927759
Li 11.072123478807217 10.516164175805446 9.240708343604744
Li 10.156571288248541 8.95495311304935 7.169185634091157
Li 12.99695114367863 9.988691785724521 7.235116911834784
Li 13.710518734597368 10.229397435777269 10.353794697770507
Li 10.289941946742763 9.058304826646182 15.10883634122958
Li 13.167450640691875 8.476473117803453 14.901255379960157
Li 9.263087481509473 10.950080087521014 11.212337150126952
Li 11.352849392966466 8.968339815045928 12.106694708287169
Li 8.952828718230037 8.402503895810439 10.194649618837174
Li 14.314148002092598 8.051693164801305 12.215667514645125
Li 12.044865372192811 7.863942804391891 9.419997338786203
