31
Energy = -46.2439363 eV
Li 13.069782194107123 11.10779544766309 7.8619914002024895
Li 11.150952779287483 9.975830877647232 9.529882644574728
Li 14.766285845964084 8.636943178758534 12.533906558332887
Li 10.469093344264254 11.355934017102344 6.607294124710134
Li 14.024837936224916 13.337799685178014 12.624973345981962
Li 14.020453910406678 10.940084161074859 10.778671545441018
Li 11.979671166166355 8.798155856082774 11.949311471173958
Li 7.3692292605403855 12.942095719424508 9.958114317252667
Li 13.59222744979194 8.277902598654109 9.450112023250393
Li 8.670616086335226 8.15599111200997 10.30944248642136
Li 10.112644318759276 6.886296553919109 12.810030864509754
Li 10.933150204764381 8.422169545531542 7.393972546670617
Li 10.24869861061647 10.061177952459303 13.955822766092549
Li 7.736667590566044 8.726640190586057 13.153063672885914
Li 12.386955730734488 7.889925145130353 14.591044044678004
Li 11.719360261381388 15.043332905745036 11.77250225227906
Li 11.521412897321262 14.139060291318966 7.04319873741096
Li 10.943774162283836 13.04197341344443 14.249729240019311
Li 8.4180038637258 13.525212635556144 7.182413531377756
Li 9.073588903633363 10.753744469719543 11.372767431863835
Li 13.154280697227893 10.76800924073742 13.884213344001006
Li 6.36436294429373 10.26330645538539 10.970709006061615
Li 9.221217906557644 13.730349918412337 11.909555157916575
Li 11.134436451464822 6.756320145400515 9.928099459643642
Li 11.617812695246906 12.033277991126011 11.73937850649161
Li 12.977440215233127 13.592511707245013 9.623270158088138
Li 9.732559843075851 15.331081290621276 9.370607684891441
Li 10.246816156596495 12.695778793393137 9.143658052869005
Li 13.092625998213276 6.191099256553676 12.05194447709109
Li 8.291341381738784 10.469208815474518 8.428096904792197
Li 7.69398931865815 11.83163865411347 13.530600677207746
