37
Energy = -55.8838237 eV
Li 11.727729508454084 6.746847250498743 14.119822337165012
Li 11.064282366798453 7.171821334951471 9.01182241552737
Li 9.745520842100959 6.770311202515676 11.676096457627267
Li 8.280491238357603 7.667037808629613 9.10432465628545
Li 12.912543157470127 7.2684056173981615 11.28274042220586
Li 11.62267877475064 9.555069352836986 15.494157841295165
Li 9.011151914793638 8.298420984721579 14.307162083462684
Li 13.976670408050342 8.951421710978847 13.501281947567051
Li 15.453914254589657 8.881948879371862 10.741161267811945
Li 8.314304563581752 9.69786569302638 11.540644173094945
Li 13.521380623754027 8.752244028940693 8.394259665549637
Li 10.473160324749651 9.109542198400492 6.73815216138877
Li 11.055123122620456 9.055786381542662 12.66221265663365
Li 10.270587694964945 9.89338123307485 9.404244583959942
Li 7.894540659124809 10.224930587567956 7.762806100267003
Li 9.576577231723594 11.45400579127081 14.266662188849144
Li 12.609135134468817 11.468071605438839 13.515582106719052
Li 12.961530250760413 10.277378070049235 10.731691135014541
Li 11.767606477120534 12.736037948563299 15.955758529345056
Li 12.357546031492088 11.298076504130865 7.809205306890924
Li 14.908801960204396 11.68299128657651 9.133316572467995
Li 15.320834610150728 11.469650957301331 12.30166002737834
Li 10.479536491454096 11.71681699057579 11.725449426009964
Li 9.815527985165083 12.415174959478893 6.929687017304606
Li 8.230841485555304 12.248157290956796 9.723059143749587
Li 10.908573670605488 12.974166396575002 9.496655797352645
Li 14.259769804084922 13.66089042059187 14.258648233349389
Li 11.526683051338305 14.165593873011682 13.298943757439602
Li 13.314084492138024 13.321741460722746 11.10526707849992
Li 12.642153339633587 14.380613519075636 7.9620377192496035
Li 9.398825298134916 14.529430848277343 15.03572363725414
Li 12.258148440797065 15.789228912261517 15.429261775099754
Li 9.034591565062462 14.209437581921083 11.862366774792296
Li 9.215094668238704 14.964115865452422 8.60299148952671
Li 13.487195978121202 16.105159880675824 12.587362703406852
Li 11.355635562747064 15.522527940366473 10.584381347904332
Li 10.448551284019759 16.79721631002096 13.176107296414678
