31
Energy = -46.24948717 eV
Li 15.344977979902719 10.861261154862058 14.646063088486876
Li 13.038317200426258 13.236521330505894 14.562483912311048
Li 10.256295780288253 12.731607314570033 15.846458335877793
Li 12.265979395463342 10.267535099393134 15.1122819588681
Li 13.972495633140701 8.337310568069194 13.200894466672466
Li 11.104023872109265 9.085100200998092 12.516819629117867
Li 11.929218385045363 6.753310740216255 11.006430416119404
Li 10.74238879864207 11.915901809337583 13.261560612952337
Li 15.983993681982977 10.20372934561837 11.708600614722476
Li 8.8551104294783 7.330574343769441 11.131473184595244
Li 15.313420617167273 13.215815912847889 12.524235768327541
Li 10.619581767397754 14.81535114745753 13.597162086402212
Li 8.031005197863603 12.9082850577833 13.443612082430239
Li 13.402641134422687 9.103129666557425 10.184157864215102
Li 13.498008112171593 11.009788718692054 12.581840714835884
Li 13.478413690779913 15.974533642344959 12.943036529903678
Li 10.327297841435922 8.981209392607193 9.590931889247983
Li 9.538898153927613 13.39015495784818 11.044586123981539
Li 14.158903780674164 12.084434419031247 9.780402307032846
Li 11.928063914055114 7.3573425670285815 7.976100120593787
Li 11.534205615470785 11.343602232865637 10.561306016726732
Li 8.687616305314254 10.523537060402782 11.600374433694688
Li 7.314926848008545 9.401529515056604 9.271204072706034
Li 11.026171724753198 15.939162808488005 10.718564545999131
Li 12.544450785886674 13.720875766008549 11.665738278140202
Li 6.8376568462903204 12.515391672972278 10.427713265641659
Li 11.958659823980492 10.525678087634772 7.800658981487473
Li 9.368229158535966 8.889148500298347 7.000516091577283
Li 9.168063049149884 11.612020978851227 8.674859231883842
Li 8.560013206648064 14.687850356996496 8.811910342107026
Li 11.52682866495196 13.585857462676062 8.793004334056882
