33
Energy = -49.39010635 eV
Li 16.647748965410962 11.885294822793487 12.076850023089253
Li 16.544900244712686 12.378330749313234 15.175885517683923
Li 16.6081643069994 14.832304802911056 13.151450009982806
Li 16.009575378958466 11.465089612309367 9.055913637584613
Li 14.817374960088976 14.887565357571729 15.648066354444211
Li 14.822156578510118 10.07319466933717 13.783996597771802
Li 15.512978140219902 9.142517659697518 10.879569689598524
Li 15.080023201617209 14.099746438247486 10.514934662625324
Li 13.228046410391636 9.812968929329466 8.917080062317375
Li 14.438318174884252 13.106513634334046 13.488825792349196
Li 13.538402232249503 11.960696639410667 15.938497843761724
Li 13.484884309656735 15.586754058369925 12.729893234067328
Li 13.912022126478647 11.549661930862676 11.057204523515365
Li 11.820669069723829 14.718783687430987 15.223697545819633
Li 12.737733869782481 8.543239515958579 11.856474748745546
Li 13.5062614642128 12.670969898800191 8.165206906430019
Li 10.575448635123951 11.98732339258978 15.787046100655981
Li 12.250190217812497 10.902534788786364 13.508458108774729
Li 9.813328740478626 8.519018249749442 12.427668473903699
Li 10.40980815473447 11.694527862724545 8.520467210417655
Li 11.567536496659727 9.031315987611816 15.11258485725027
Li 11.996089183721761 13.805436397382365 10.372995333789476
Li 10.574689223261672 8.484845145749604 9.411897917556448
Li 10.347492697180925 15.793665722109294 12.227729609089058
Li 11.477616301422135 13.324221799753753 12.990784646577925
Li 11.071644571278625 10.76795638651826 10.96232453333235
Li 8.822449986985433 13.977208718489042 14.003017105044561
Li 9.307752719654964 11.077616365993427 13.399683443698267
Li 9.244551791016628 13.104579895393222 11.191040997624242
Li 8.339168883712084 10.41009827983581 10.363843451307142
Li 7.314246852500848 15.126966576968224 11.52051463742488
Li 6.754611826992686 12.288351689871838 12.150036328656599
Li 7.428988075712629 13.057334246650255 9.119902185038592
