39
Energy = -60.03473589 eV
Li 13.82747291446855 13.890134947612559 15.701861449405852
Li 15.490692210854077 11.497587075731252 14.40651357570878
Li 13.714123054130226 8.663903636718825 14.488785166894429
Li 13.49783847554541 10.767435403790387 16.663038910795976
Li 13.987606130407352 7.298494962561875 11.738256868617663
Li 16.203743114057904 9.775040268168187 9.796008392750252
Li 16.937361689336853 12.777251049290996 8.544192737905675
Li 16.69388972847673 12.346271207071439 11.548362388226971
Li 14.477693392962744 10.254327103662868 12.027509633179152
Li 12.742127816758227 15.97520474125483 12.944597789071805
Li 11.071749060888976 12.385064450642533 16.865436206561427
Li 10.692371732109718 9.605931378589124 15.223398549229
Li 11.365241436000124 6.698356992886254 13.806434446626165
Li 10.99570915424666 7.023673271969605 10.743154754598525
Li 13.978969103909124 13.392868471664771 12.599189686208849
Li 12.582331310621637 11.399272838797394 14.139912092205002
Li 13.089430947611064 9.30271132176049 9.67063416185873
Li 11.77503893984221 9.029531007150158 12.44549340744928
Li 15.374646388821375 14.854366816402022 10.309027096682135
Li 9.80985906078672 11.41888398471488 12.900560588474093
Li 10.11664965361089 9.90997755894112 10.167795371474616
Li 10.893104708149773 13.945670799461391 12.147194564979397
Li 14.536633550854168 12.150947885242177 9.759772383932647
Li 9.715556978761452 12.795095563029399 9.94799093130789
Li 11.069511298499352 15.490186633959755 16.66216372129899
Li 12.484166588468073 14.333601680765472 9.936943574997297
Li 12.121363635890868 11.63715429755982 11.226956377282878
Li 8.976746175925172 8.557312938045705 12.64375562892341
Li 11.393004684974791 13.832800158255075 14.596072117620462
Li 8.796178386828258 11.374226131315737 7.779057379502206
Li 14.0582220112117 13.917190715070602 7.52972560174998
Li 9.668430691825836 15.94210482345154 13.799871846478009
Li 11.934903675590313 11.769234679502155 8.328793736320199
Li 7.531671851815357 11.155160810590802 10.818681101742866
Li 8.79379734124631 13.194499223320404 15.059745461759872
Li 10.457054717930848 14.253931023591152 7.6874070796497564
Li 8.055152148358426 13.869846552319792 12.105118361629751
Li 7.460028656258884 13.948820012564784 9.060415268661002
Li 9.82078123844417 15.811554881882364 10.40646787090288
