39
Energy = -60.45566027 eV
Li 14.03667902322737 7.524967210624451 9.618152703809063
Li 14.975405003430154 7.406845690426819 12.676163152359775
Li 16.16442973687631 10.784567140200304 10.449379239334638
Li 16.22497726552543 10.173143736501371 13.517777911466702
Li 15.656229903994712 13.63098310403437 11.031981621304876
Li 16.691845011950733 13.345083433624943 13.799221335089284
Li 15.908138326453532 16.296426088228188 12.993582315631995
Li 14.17652890357438 10.421946514553849 8.21365980800135
Li 13.919362974925802 9.549156244188046 11.357923229282662
Li 14.473870088473447 13.685430654701118 8.168207363577553
Li 13.345225503601606 9.554087749611309 14.379307028787087
Li 14.285858656140263 11.90758086214068 12.741007511198854
Li 15.421830412040592 15.353668658216126 15.963491715416824
Li 13.73637182047054 15.617564320780584 10.97829840872431
Li 14.66400184596899 12.150032375535005 15.73710559775227
Li 14.028914676443826 14.378998308245434 13.809466936567688
Li 11.823096209556518 7.874552514086475 12.225688548067701
Li 11.617411607847496 12.167655873780967 7.56029454749057
Li 13.205202720180559 12.189390173112965 10.076317614679645
Li 13.063417120256728 16.771838272277094 14.220171508703894
Li 11.882596537905055 13.769757892384165 12.062289805679187
Li 11.605937093713614 9.572872761491633 9.572012198766656
Li 11.498008665794764 14.656795784273035 9.204657028811049
Li 12.016159547832176 12.247031846805744 14.585995985627072
Li 12.476885613440427 14.240235479592979 16.457267726873592
Li 8.673700978565487 13.810344512388234 8.294224134398283
Li 11.611582664926688 10.841392382984244 12.174892194941915
Li 12.04899190517341 10.973243198897755 17.073816021258985
Li 11.161246052834858 16.659695481727802 11.708632319954015
Li 10.12963139508497 12.143497593751565 10.099057708112339
Li 10.297105139076951 9.799151806168764 14.606882881910579
Li 9.123763996906336 9.693828583595188 11.722357084140802
Li 10.532572876736126 14.882661647428566 14.159056832219735
Li 9.145848830316385 14.590918315360698 11.210516096003207
Li 9.488552007596734 12.551496205687858 15.945232508020792
Li 9.42104206646417 12.30854346915143 13.066239019677544
Li 7.32757085042213 12.26119426372549 11.160073702882803
Li 7.49161852112705 14.062879646202118 13.854857879759164
Li 7.34156273670615 10.936332249183149 14.150944257623811
