32
Energy = -47.96843343 eV
Li 15.909268711208558 10.761453852006536 11.874411454345285
Li 14.306357916568466 8.816486019676567 9.856420160664484
Li 13.677483922261086 9.216536928650571 12.741896335039977
Li 16.405959305185043 11.584368664257347 9.180862906656875
Li 14.70038169619619 13.713732110981248 11.515978434865087
Li 11.567984591012761 7.4679985522871615 13.132431183096736
Li 12.65007492423673 9.725588394391114 15.673600633455075
Li 13.909916827830825 11.784403531338597 13.643831595307226
Li 11.765808323611429 9.627490215682998 8.193670006908881
Li 13.637193437586859 11.583208002713457 9.946217151832185
Li 11.479893786301385 9.740965286189825 11.080023711604705
Li 12.011372821009441 13.187672031293062 15.080954064724446
Li 14.407898312811435 10.64881602478658 7.268715756636094
Li 10.845962739986149 10.491420712989934 13.842678889864217
Li 14.68971182456378 13.809954206427127 8.357146338351216
Li 9.748325469174725 8.406676741736174 15.407029150977202
Li 11.730160701658141 12.65371152077452 12.074623378480027
Li 12.159854399933142 12.630651037017014 7.244327398193528
Li 12.163493685903235 14.454778314723239 9.823534844491851
Li 9.980062348518832 11.327481671153524 16.40109248503919
Li 10.57412106242149 12.029083206654455 9.383283039085352
Li 8.976663157418452 8.539087265937 12.331750111386889
Li 8.96673397252296 11.374789318641145 11.691245125653543
Li 8.951774297602727 9.475431020780086 9.420643411610053
Li 9.346019895127613 13.204019486436986 13.912083522434388
Li 9.434077891121532 11.26522799324338 6.87784021806604
Li 9.344142497282725 14.23641101412272 11.03604653598513
Li 9.676916652258525 14.30617086577068 7.906696331948454
Li 7.8144923886621145 10.621104051894974 14.17460070477231
Li 6.523669403497507 10.058955171667309 11.232167284896596
Li 7.660474435940414 12.304220498886835 9.266008954390578
Li 6.7595591049904 13.031427322283577 12.236737096176737
