30
Energy = -44.29906881 eV
Li 8.028495353959036 15.732479385682135 13.746361098820254
Li 13.158126651216504 9.641918058553598 14.190069125992503
Li 14.315594041924022 14.95095525963528 9.432572550997323
Li 13.265382794923989 7.199795026617156 11.831057511827366
Li 11.16581070430127 9.856407613063544 7.242963892592708
Li 9.011793636523068 9.491019080914814 9.509698329434734
Li 9.567202501402864 7.081925531708984 7.800722045354251
Li 13.512664403807209 9.836731250177603 11.43236901467401
Li 9.46275762433796 13.88413999777631 15.81511404153168
Li 12.895717184935709 12.518653672127517 7.84144219205593
Li 9.53117720194313 6.981882297619336 10.931821276764003
Li 14.233302323825287 9.604515066592327 8.734949010057932
Li 16.097440980865418 9.376934643452518 11.479179537325013
Li 12.242636247085406 11.975014329003596 12.592661039412897
Li 6.957820686034333 11.832850043503726 10.474110304576566
Li 10.902925767931336 9.251992853939724 12.179238516242277
Li 7.929735851175339 9.703753488358926 12.385815027898925
Li 10.48783444070252 14.165960700721836 13.227384369177111
Li 7.7995683762504955 12.81816101705725 13.373249168860252
Li 15.067098117778333 11.798197102850885 13.23615651690659
Li 13.687214501818117 14.453664830367526 12.522106688179246
Li 9.577913628548908 12.438728740654893 8.556059663685966
Li 11.725086523793635 10.97991009232245 9.739411530958918
Li 11.713204998180247 13.777852961204795 10.37685182960665
Li 9.597608608875934 11.761701544367511 11.387406345369923
Li 8.6150517898486 14.41415055217204 10.946438396079511
Li 10.192585235489547 11.224800904378187 14.404846647314725
Li 11.710586419486058 8.119341206749256 9.494405720393472
Li 14.567170519838765 12.226556257488046 10.417832539303257
Li 12.605413435264726 12.987735675633546 15.118357967010414
