33
Energy = -50.34958189 eV
Li 14.176455882826 9.900210211270242 13.956525061014917
Li 16.12402223464881 9.066988408617767 11.701396427281336
Li 16.35133934793062 11.37387690956631 9.55698434268888
Li 14.153251159381536 10.930015779037364 11.167736282518785
Li 11.293381212641126 11.431434796603032 15.272840239419324
Li 13.265338403121646 12.727810477623311 13.488137433252493
Li 16.169521117123576 12.058265412734565 12.639846768078105
Li 9.958737482070198 13.009037095565748 13.038479743703698
Li 13.164607043616929 8.091091501879681 11.69356080350019
Li 11.510409625534566 8.30708824862576 14.356004171891739
Li 14.321597492092803 9.010428053362295 8.965628688379311
Li 11.610698725669856 10.446243990200355 12.59028439253439
Li 8.96124029718101 10.109843075948277 13.684650285033939
Li 12.71566228567318 15.159514365189915 12.26861907331763
Li 10.867121143982626 14.721325025918317 14.868393245734232
Li 11.719033863597854 7.1758963173645265 9.038107540219658
Li 11.879556472455487 9.548491956315296 6.980835661517732
Li 11.734740401943917 12.742648499079513 10.801332286396212
Li 14.580642489964907 13.715435341313889 10.501397352606524
Li 10.072911646334635 8.13322658875562 11.505130157341885
Li 7.9353884834765225 14.914765027871729 13.502892279512556
Li 10.10462177337765 15.883729809964754 11.844319918966388
Li 11.767163043764318 9.876964932587102 9.706872552250273
Li 8.47525775134714 12.621229043147551 15.414921373103383
Li 11.713213723973825 14.90802663106205 9.213616778918947
Li 9.255100024601424 10.999982625671286 10.860626278025817
Li 13.361462944711405 11.961308671540099 8.394571764887486
Li 9.169755646937839 9.074344247562163 8.654721754081335
Li 7.173096286258557 12.154822461232708 12.335104635437595
Li 8.831891418977357 13.837929711421355 10.338579328709237
Li 7.166057161062107 9.21307397295741 11.196728029468382
Li 10.25611235174631 12.039545833517167 8.243012195573913
Li 7.175873033697534 11.535202437275693 9.117366599259768
