32
Energy = -47.85302429 eV
Li 15.967627631185279 13.557810404900732 10.231425914962575
Li 13.151381387519827 14.074725856927785 8.966487521790196
Li 16.977658097345458 11.854569312702049 12.817672609423427
Li 16.252015715292018 10.36243632508017 10.277836409750657
Li 15.210023338587456 14.211489135789812 13.2874024244345
Li 12.842172595826824 14.838051627118128 11.738375447742628
Li 14.018806074740722 11.458551887958135 8.53398919314133
Li 11.734919725815697 12.56491727330228 6.711072772073729
Li 14.403825424841964 11.816897841412642 14.810984592320265
Li 14.985473018000334 9.409607621793791 12.979886773820931
Li 13.224107275465583 9.465995136076371 10.479844266238157
Li 14.359044771204664 11.957797930518463 11.67710854114389
Li 10.314646690677739 14.625652630302799 9.704905752642004
Li 12.13322320966966 12.781378540543876 13.495462576812287
Li 11.134581276660988 10.238622979194304 8.390448806001004
Li 9.498735275612693 10.39807289250531 5.997417874157145
Li 11.558919856216065 12.21950611272213 10.613221647378657
Li 12.255529242757895 10.148648918312604 13.077901802386055
Li 12.619350561752343 14.799534836518369 15.090179355957721
Li 12.277763041726176 7.454032726666019 12.472323506223276
Li 9.31835316422627 12.342271686753358 8.139618837733053
Li 10.19590051951698 9.585029225155052 11.235749165350253
Li 9.598183526949693 11.45619839406394 13.572999542395968
Li 8.627579652489288 12.231940108933617 10.995324615117816
Li 8.175380369038846 9.856112029754437 9.055078004951147
Li 9.968881942096207 14.358653384618076 12.720742072160434
Li 7.437911870764338 9.955881165506383 12.577514668727522
Li 11.4487708709947 10.907672094604589 15.811020299441664
Li 9.875366730052008 8.736903128887286 14.172289455666805
Li 7.279707450612806 12.957434325964016 13.688626802958215
Li 9.760781166860863 13.377043621111975 15.580967070885603
Li 8.130696852737161 10.72776811129045 15.743141236675873
