33
Energy = -49.70422754 eV
Li 10.668354919909772 13.425088360304242 16.85020257224969
Li 8.20213745350339 14.147556910921114 13.817442715709452
Li 13.265812280515911 13.153304793685422 15.158673659843226
Li 15.555642414691665 12.702784929581547 12.842222713762908
Li 11.57205420938722 10.564314789300841 15.330678930539378
Li 16.231990998482576 10.114108946758533 11.339360704740743
Li 10.82154353334692 15.533672201422677 14.643567266791942
Li 8.668503681096144 11.60118346559016 15.703541665061062
Li 14.278262360446176 10.053049165052384 14.012687801342711
Li 12.74025476198828 14.580844006249173 12.55990461865102
Li 11.929586652106952 7.740726929138463 13.210463656713674
Li 10.577486275740538 12.844107308903286 14.128519966734535
Li 9.309605342407457 8.775819974715029 14.638539830537285
Li 17.318199163911228 12.725489648384132 10.19360545991425
Li 12.800342556452412 11.837381793725555 12.546117878653424
Li 9.92316110316128 15.431846909172178 11.551177567400146
Li 10.707030509173988 10.029124088982472 12.478525086181069
Li 13.539465097980635 9.36932327705745 11.29302449604334
Li 8.144556917710094 11.108884342168885 12.814609830613724
Li 14.544523859227724 12.166528775768056 10.290437643332623
Li 10.176984837956882 12.763694117998066 11.431488742360619
Li 7.569851424151558 13.383697678787012 10.813852917979165
Li 15.226092055519448 14.91899628415401 10.786245819428114
Li 11.858386036940932 11.149322175694095 9.706319438266412
Li 12.443862135187583 14.129325891947113 9.699223719961546
Li 11.335849332206195 8.224302271870421 9.95826604554719
Li 9.820094923572052 13.055053113215509 8.595837924688182
Li 15.192279077861029 13.505248385011742 8.04567616719356
Li 8.979708194979782 10.447027330270412 9.946700249935445
Li 8.924822426770135 7.957200447299254 11.769577704891587
Li 14.131912933485973 9.92700183172203 8.430891239759845
Li 12.543214178901033 12.342558943985555 7.299072639516653
Li 10.859852541446804 9.892124161772811 7.461939184985403
