39
Energy = -59.94389247 eV
Li 12.718544152694147 8.264293730183049 8.639530171307532
Li 15.540524397432458 10.697618115849057 9.252396154397465
Li 12.451710509652797 5.988154996777225 10.967626140771875
Li 14.866230531311988 7.996492484499899 10.778272268472046
Li 14.270069457365446 13.162842941119475 10.460266388243447
Li 12.844562782032687 10.70507848176403 9.996318654334935
Li 10.471176770122057 10.55732047206709 8.188513659812488
Li 14.639234385061934 10.59874601160561 12.148704235202013
Li 12.30128585389662 8.617605826937202 11.542561761410544
Li 10.681456895732428 7.177448551235763 13.350732161004034
Li 10.0380572425776 7.950611371916771 10.16635344870055
Li 13.751680005823209 8.017093010847645 13.886600638129702
Li 7.724363950804699 9.953828228828396 9.658893702107564
Li 16.079057356702524 13.655300454019628 8.468494056373453
Li 13.328314052126819 12.103033961562693 7.58610617423056
Li 16.80484538172322 12.691664997294378 11.398380166297468
Li 11.497679014488796 13.110671965342524 9.584351288488529
Li 12.251297586327674 12.258888902926774 12.434516635316365
Li 10.144979561113091 10.793675430772867 11.083111817051599
Li 10.622567270034896 13.610967208669097 6.9872149092293565
Li 11.546693927792669 9.902250997168435 13.795825793806523
Li 8.56127725159921 9.326996845778908 12.743270035055652
Li 14.587519813617906 13.833244731090495 13.261874938990415
Li 15.54299603590062 15.596708983463756 10.85313956602582
Li 8.660189378483425 12.838972327453591 9.212045377919408
Li 9.6255326734656 11.858668495986356 14.125912463818784
Li 7.598721557155971 12.102179456873644 11.921643458628523
Li 13.194912449207076 15.110541340525796 8.572007777796227
Li 9.24770961103539 9.535120742199268 15.719105443264581
Li 9.893056911297135 13.78312524365614 11.880729534527498
Li 10.117121934222137 15.546874839101475 9.411835333233043
Li 13.982819424957368 11.33890086334461 14.756570086658376
Li 12.444326267981108 15.211954720310159 11.652150066392862
Li 6.975086138352959 11.451780276285634 14.821316672330624
Li 7.404579325850389 14.94832113250826 11.04101839330929
Li 11.58512009681633 13.879402855723622 14.694924537778778
Li 11.589674052960286 11.299960217913744 16.37658586553
Li 8.276187222480921 14.369849206749612 14.145751878742603
Li 9.026091851333494 12.72689790486834 16.71332651759716
