33
Energy = -48.69785833 eV
Li 9.532056891124075 10.79427374247476 8.008646836095519
Li 6.776468711739238 11.188029814500272 7.026794575430952
Li 9.144108247660611 13.149167271736077 6.582548500845587
Li 12.30208834525996 9.397964879967992 7.9415545029309484
Li 12.043540557111092 12.37253887301227 7.651625091841408
Li 15.091590298148665 8.495654329753455 8.4679020759627
Li 14.88826844941593 11.427815443334474 8.32739658142833
Li 10.394236754498039 9.272948588097979 10.462230177369616
Li 7.461993330234432 9.966874207108432 9.877199566247237
Li 13.205643365592422 7.820798796280708 10.667990110452878
Li 7.996012625951092 12.788214850055274 9.300822878415643
Li 10.769018936711328 12.236537273915358 10.228922441134975
Li 10.432270933619627 14.61530703067895 8.9328283843001
Li 13.149444583763929 10.568910875947505 10.31454328537211
Li 13.373057731272812 13.670790914952342 10.163835837740494
Li 8.354854994384542 8.389051501221953 12.58402349372535
Li 15.763032165853877 9.916481208249092 10.962156415745069
Li 13.903237528087073 9.12292165550019 13.274889629258764
Li 11.756889940329728 13.70862429480301 12.577296651252505
Li 11.563021259750256 16.119981548856412 11.215108299037686
Li 11.189977418917984 7.903946801061221 13.021280263822518
Li 11.609894362874797 10.78505238760138 12.762077767864735
Li 9.819915895119808 9.592666164946229 14.823680449660111
Li 9.125860209627152 14.316864949408247 11.824529854697222
Li 8.86047244969817 11.306812957579776 12.148686455904253
Li 9.412059544250388 6.578875477471456 14.958283999108701
Li 12.847656711374125 13.862659846873415 15.118529421442831
Li 13.92260793541175 15.436626737088853 12.86075629850317
Li 14.225873061087201 12.185371784013036 12.755135882154434
Li 12.542465125720332 10.924992935354409 15.329384134001067
Li 12.13349121364017 7.908844097474109 15.630750308954738
Li 10.777107043707732 15.856425485973544 14.135239625688337
Li 10.02652773397044 12.740455789939618 14.567035122661416
