38
Energy = -57.81478849 eV
Li 13.552130565111801 8.683812144899543 10.21824106542918
Li 14.028234987231441 8.391586292473146 15.050599445295692
Li 15.405774611900172 9.641443997162705 12.468414181244905
Li 10.744641772361907 8.030183217484883 11.540896235409384
Li 15.498136381875007 11.215549882480962 15.114375987199743
Li 16.208163592430875 9.983890486334458 9.397548427360979
Li 14.225049515067061 11.586289892958467 10.409739468079184
Li 12.531128123962144 10.795689829760482 15.32319492163999
Li 16.71534018522132 12.217359292810695 11.80483622602052
Li 12.620318466235515 9.845233688901262 12.765026887883929
Li 15.97090743419664 12.924222949065562 8.701857108232245
Li 15.931512653282471 14.326533085769242 14.054956303945815
Li 11.079396304383318 8.278837637935224 14.744238427659695
Li 13.635014279685636 13.543956943303513 15.824306432868038
Li 11.459310889527957 10.741786412058161 10.397608543670747
Li 13.385104044480874 10.88458937352862 7.893279441836938
Li 12.078588240678052 9.481438228842174 17.5754522696133
Li 14.901085869947005 14.499698278708328 11.165649208524787
Li 13.991565824235893 12.353047628355302 13.102581249693099
Li 9.787666325473895 10.497427473002965 12.857278407867483
Li 11.208564066627536 12.814504093081355 13.890333211237385
Li 13.042944946946648 13.891645486471539 8.685241167808178
Li 13.128291210844509 15.15239209044778 13.405154364477696
Li 9.672117493741455 10.598182714341943 15.743274819696435
Li 10.435205118154595 12.365475506449787 8.435350831766058
Li 14.131496165931077 16.61544487977037 15.63042576958249
Li 11.929447195432177 13.498617696519222 11.153224062605714
Li 8.817587586707827 10.037323218136557 9.960289145752899
Li 11.059833295996132 12.732024262434601 16.979805587719408
Li 15.064777751175415 17.181009479489774 12.867087643165812
Li 14.696924875161727 19.499578959251476 14.851747904588311
Li 11.151633870201543 15.399593350209225 15.457848481420957
Li 8.684959385948199 13.368279309197641 14.48281281759439
Li 12.68251139092409 16.422741928819562 10.879469508420199
Li 12.270860685730547 17.866736690335106 13.684657332697263
Li 10.241152687197717 15.215234858154476 9.536637154278104
Li 10.298440920340505 15.529461984714638 12.619522158342127
Li 9.148629363975315 12.886415928065706 11.268079759315473
