38
Energy = -58.58677366 eV
Li 9.189489044303464 14.007860319885545 15.45755424984777
Li 11.858569722517803 16.07134189671871 14.892331026246575
Li 14.319432621919274 15.619812597688904 12.72180515033494
Li 9.40688350530419 15.147367521772651 12.66136279118772
Li 11.809634348886542 13.355167835191194 16.502797450189878
Li 15.74041871717647 14.43527686104975 10.167751689584117
Li 9.738312304305449 10.948787962490734 16.86288187958373
Li 14.294355666411596 13.540923382695022 14.898184248873804
Li 11.72910130789278 16.58023227813639 11.792164611198727
Li 16.934972745300342 14.025496233616932 13.30156318803629
Li 13.36882781162493 16.420607519601983 9.263450694704025
Li 11.958797892122915 13.830951527088326 13.401554598931176
Li 13.098053075797875 10.763110607144833 15.960513977555456
Li 7.825174017910824 13.693189542305033 10.288052281562795
Li 14.838475853275936 12.673654294482414 12.066592463495713
Li 10.525911531946615 11.72780035803874 14.44377260668037
Li 15.925369882970067 11.122078958834635 14.21977049041594
Li 8.089699364832574 12.478551562165574 13.102595314589536
Li 10.456973844057389 15.085557078399475 9.506894002683872
Li 10.274742269783472 12.74076939976759 11.393860555263217
Li 12.963200633186089 10.96744900585493 13.18793557056064
Li 17.365452435933936 11.774559672351344 11.250907563278803
Li 12.82482081316134 14.077232518875764 10.726414532338866
Li 10.07085660368474 12.061852945170706 8.706121702977606
Li 12.768016782935446 13.585921827813324 8.087747306678764
Li 10.42298389320472 10.091809725211798 12.110955454135107
Li 15.083230047236519 9.772038977307114 11.576194885085226
Li 14.989426657858507 11.651469988060215 9.167942677143035
Li 11.196907244847795 8.816228805526565 14.588800639319588
Li 14.279529481494258 8.510244562884012 14.204283865882624
Li 8.383667969231627 9.723274720948211 14.065246848542591
Li 8.186073156149545 10.487386276989636 10.687855893781304
Li 12.473407133099986 8.23306587450179 11.780642729352852
Li 12.396357434647937 10.642585951933256 7.349106313607357
Li 12.517136453421337 11.133622823264949 10.247051892535746
Li 9.392238088369794 7.5516231619072505 11.903189308816975
Li 13.82492685318337 8.688862298456394 9.117401187505376
Li 10.645931737451079 9.050857677844263 9.375468258477644
