33
Energy = -49.81222794 eV
Li 17.263888183741624 11.836080653060112 12.976207476385262
Li 15.475552474408232 9.24461625048997 11.602855549596457
Li 14.826179639258136 11.93241982802147 12.095596596912994
Li 14.851921154581309 10.306288075029597 14.62175435153114
Li 16.236127695088786 11.905103113333874 9.675697242374724
Li 13.787477015145072 12.948167752192834 7.695414858609117
Li 16.168249329404183 14.423743664051198 11.468912586230164
Li 12.051656259232892 12.08320814823931 15.520696837824305
Li 14.57645940814913 13.489349769356291 14.255391373669
Li 13.668013845576802 7.375135641130954 13.514218371340034
Li 12.868757391847838 9.89831616034504 12.788659640115196
Li 12.548090160430364 8.198285698065902 10.603127281697647
Li 13.184960253346432 15.994693263280416 9.005478379264531
Li 13.691454148996765 13.709581589123244 10.338421097837557
Li 13.477908955560768 15.56868725679651 12.448030156454044
Li 13.440795444373455 10.909287891910713 9.880794538774191
Li 11.920191782601707 9.02240105713281 15.416617905018846
Li 12.235531144083104 12.787563985208068 12.5939193242839
Li 10.381460675702517 10.930667630592549 13.75419859968769
Li 11.03050304478574 14.59257747511153 14.1746856163849
Li 11.290366470792906 10.443046050756196 8.075638925611862
Li 10.421998724512651 8.192597203250765 12.973324584427676
Li 9.445905499873954 13.0731313667798 11.891596858079483
Li 10.985276396280838 15.411066688051916 11.138856817175553
Li 8.361209896421299 15.478292931286582 12.815593780944106
Li 8.55976030237466 12.755719486970056 14.670887111957965
Li 10.809699799527483 10.634355054448001 10.926315985389246
Li 11.144635291689807 13.182928057956422 9.238102426241321
Li 8.845807466003535 9.691404379359192 15.57314319137408
Li 8.440572126805867 11.582621152441867 9.64158321195885
Li 8.340685201926656 14.659075340002989 9.77960561046155
Li 8.067202235034097 10.24983737156841 12.523542833124722
Li 6.7656889366843025 13.011368325656935 11.974155602593873
