32
Energy = -48.78667332 eV
Li 11.597658625079564 14.268304640568477 14.143018312445944
Li 14.280640814305206 13.18491200532763 15.4381957561661
Li 11.724684618931194 13.828471197650266 11.266375467120714
Li 11.692312661515189 11.320300053738725 15.517755711619525
Li 10.274226831242022 11.84890024619969 12.941732827555938
Li 9.201320303024353 9.483550188594592 14.369053716895358
Li 14.207017661479638 14.820851394751639 12.614889190147363
Li 14.36395151332561 10.013379461145567 14.791542217161826
Li 9.072355107251099 14.47242986136867 12.139621374469872
Li 7.154704575476956 13.648574754678457 9.7119207678903
Li 9.422090968110574 12.249920656457332 10.140740521575545
Li 10.105501129805106 15.093770269164724 9.321640992194583
Li 11.79308282246765 8.101948525624602 15.62954649765023
Li 16.513401791930512 14.826349460645513 10.823548974601216
Li 11.522808458167622 16.49498975366736 11.875286890074946
Li 13.219446919371267 12.044477252744459 13.191065935723485
Li 7.447509650218244 11.60073533377424 12.14708577371456
Li 12.039553251214194 10.992060274376392 10.758686464872062
Li 16.055824860129885 12.40306333444204 12.954082608706468
Li 13.571057122364886 7.209896503651678 13.289016092254371
Li 14.473740502926164 12.717521586201963 10.458243456223041
Li 11.853565283927345 9.353662847418322 13.2384779260064
Li 13.520656711903795 15.419275533303118 9.675941071467607
Li 8.961714152624252 12.642040108050113 7.46041931258446
Li 13.687116475879396 10.190726209790025 8.717024508188386
Li 7.403158004568869 10.584417247875319 9.191756275536276
Li 14.50027200402046 9.845374659328751 11.736320883460406
Li 9.43715110776104 9.428720695293446 11.350624716717869
Li 11.980984729530634 12.816976644975703 8.525830969659319
Li 10.479020617309633 6.936030778878136 13.048573551410218
Li 12.10326243478482 8.095133219621358 10.604478007686769
Li 10.451284965496306 10.02748449986826 8.5282196072449
