32
Energy = -48.50807666 eV
Li 11.948192366610387 14.709439715323967 9.55316362011117
Li 10.465638517976238 16.50510738338689 11.821651483432978
Li 8.856778687441103 14.569142914717194 9.659079871944218
Li 10.404224517989103 13.438717198105271 7.050368246117879
Li 8.04703003050124 11.611548608229297 8.11273171524477
Li 13.136392222507558 14.788392569825298 12.571802439480406
Li 12.910967567849546 12.293999611352653 11.016184948069144
Li 10.617939188233011 10.184564855387164 7.323523979143339
Li 10.428715852923037 13.763433209050087 11.951899292226082
Li 8.02573343052139 14.806935661742157 12.77710750925343
Li 13.108486885591649 12.068388928026435 8.122742572451273
Li 13.816836590077592 13.74507536477229 15.44256311225632
Li 8.07852832530367 12.02466996928527 11.250240948577522
Li 8.214198465876734 8.382709543575237 7.504932744621409
Li 15.041549124678735 12.140813905019694 13.070184601579784
Li 10.767916172321165 14.89329406115665 14.51031744247179
Li 10.520234796220706 12.183336471747117 9.43860224634319
Li 9.308087056195609 9.46535338443312 9.862464828677238
Li 8.390018296455716 9.327933484877281 12.796000401393114
Li 9.195782034420999 12.1461643369122 14.13106821642028
Li 12.194846644390392 12.268502866815478 13.856289669208214
Li 15.100752883127347 10.47850757457533 10.390840348555871
Li 11.010430247542027 7.358670823729298 8.727814126778322
Li 15.90931432775648 9.016065507652923 13.125606366666066
Li 12.306883759866963 9.737381769633764 9.778203676150708
Li 10.597936229614909 10.810917689241387 12.007494698270529
Li 11.091388442873354 7.906296802343999 11.881147636655932
Li 11.06629298474071 9.539508002162988 14.517733691797869
Li 14.033761304357146 10.331191461993384 15.298550860753858
Li 13.998259901840646 7.528468950303007 10.980734997473048
Li 13.339226315096875 9.741748326527484 12.612370478237887
Li 13.36975564315236 7.4010432534343 14.09524467030085
