38
Energy = -51.90170084 eV
Li 10.702340103284874 13.745002204873066 18.613286232861526
Li 12.233188653523428 15.589864061399675 16.948977095711605
Li 12.99861051643884 12.774443483310582 17.195170242734523
Li 15.341234458872899 9.183309712872974 14.9664484123341
Li 14.561866410511 15.09424441906763 15.462957407006188
Li 15.205475176910063 12.125513238571322 15.447988376906407
Li 16.319807914504096 14.050553641528623 13.452623417213402
Li 10.296497666532979 11.865321551770336 16.29024552039195
Li 16.68274631537779 11.072289627707633 13.117691320880901
Li 9.586321821150667 14.624908008595016 15.996980426459793
Li 11.88014715173782 16.657128466067476 14.324331106659077
Li 12.766776374881704 10.828015849959684 14.958420510788605
Li 12.075216083009238 13.680509387432977 14.59407663974517
Li 13.904207412282767 15.634813833817812 12.645089132734089
Li 18.058483796445024 12.94991643592363 11.311937115981307
Li 14.407151687316759 9.5746010852181 12.286047386091289
Li 13.858014424760642 12.50401175128908 12.680014869525147
Li 10.245461124036513 9.47434395714094 14.744092634592368
Li 15.526682103339798 14.38416154411121 10.676858731618431
Li 12.746541601659928 8.036518086002514 14.240147398245579
Li 11.32311183958807 14.619269084940681 12.055007333945245
Li 9.436705050176352 12.842898868389584 13.600771641154122
Li 9.12914930265127 16.172023318445365 13.706433272012497
Li 15.51965125626976 11.552031732232775 10.381738541090504
Li 13.082408531621558 15.962086309183107 9.80748461878813
Li 11.693243409644268 10.594736508307824 12.390939637856805
Li 12.876103723298387 12.961506394137094 9.984459102519356
Li 14.67007089797664 14.265915912034343 7.99809344694436
Li 12.343290982451624 7.742954796319452 11.43602180717817
Li 13.318779393236019 9.766047437181378 9.692191673526372
Li 10.49334837331285 14.738956687474218 9.281741110254739
Li 8.530039751428525 14.65153373641743 11.391592734438992
Li 10.030150211084859 12.268533944181447 10.76495679797542
Li 8.795369478921414 10.201395098927453 12.4211072805587
Li 12.065816903948525 13.80516155345923 7.098583267558986
Li 14.088387366077693 11.507559347111131 7.579731261690258
Li 10.311798726270947 9.351644183154761 10.125775288166999
Li 11.246401397674854 11.305662968645985 8.236478943559696
