34
Energy = -52.0645527 eV
Li 15.401658921800934 14.837918889179305 14.558600678472283
Li 14.096055918842739 12.415933245547125 14.08898259889497
Li 16.846034635618608 12.106531074459085 13.866324571508182
Li 15.008359692578361 9.628369414088601 14.694961875958283
Li 15.00920538179484 10.513691926712928 11.811563256439825
Li 12.756823911568173 14.918315288756212 12.887397272029219
Li 13.75779740231519 7.701209024796051 11.948992424873895
Li 14.638488354648935 8.651735635594978 9.100116753865889
Li 12.291017385128676 11.138920205379447 16.124741323953113
Li 15.22026836157029 13.635102910864637 11.675945134746822
Li 12.472539006276627 10.008284063668649 13.372545716534988
Li 12.620960675318251 12.336359621502941 11.495127990972836
Li 14.021948079696543 11.791153590226182 9.068365265899793
Li 12.426955470662978 9.635314093197218 10.385733293742197
Li 12.412514480522379 14.303487524001145 15.835362112380906
Li 12.030793402228507 9.866141709245655 7.5262344107146015
Li 9.627910156418633 12.870508086143454 16.21100890798288
Li 9.731638420919525 15.185905591665216 14.015007922438652
Li 11.919889886554417 7.176994639786516 9.2984535192012
Li 10.504189612176377 8.091286470413113 12.015995496090135
Li 10.154045978746241 10.901201442227135 11.77580166763128
Li 9.551666661135634 9.38412185724531 9.38947886249493
Li 10.989010384819904 11.994893319775057 9.1902952312796
Li 11.96087442156859 12.994246909151572 6.900655961050727
Li 12.635992518977725 14.47957781907614 9.688507037878374
Li 10.199063819722713 13.92638483100721 11.417054258864479
Li 11.134125878298399 12.646992830894105 13.971958564037248
Li 7.698109318559728 9.676928616084972 11.92058336150101
Li 9.669035060059793 10.175169632571466 14.486189196997088
Li 9.555752341073047 14.364932909577869 8.58921689331966
Li 8.115991992087483 12.204965825700507 10.106612190357122
Li 9.231600339879263 11.545277662040592 7.11468079522518
Li 8.213823698531579 12.659995784974022 13.179490215474026
Li 7.6213720946551895 15.074780195985824 11.294316041078757
