33
Energy = -49.86926592 eV
Li 10.113753879755311 12.692088677134725 6.367828023942907
Li 13.234332422708908 13.017156502964138 7.040834527693148
Li 11.037031769957455 7.605818087775368 15.01307700807624
Li 15.133236220661754 11.295262501481167 14.448476722868826
Li 8.489491960344925 11.304894899931405 12.205341382066612
Li 8.889370366004085 13.957089548106847 10.27036453346624
Li 10.428297746375122 15.418071786980065 8.00860477055802
Li 9.222296695534283 10.472641397425502 15.19349108403591
Li 9.976933832563235 13.565936221873173 16.255086716960964
Li 11.6710826795504 10.410139333255213 8.013821065485686
Li 10.455441584181749 16.4436667979193 11.109490821840312
Li 11.199066902698828 13.041743103201835 8.832376394782015
Li 10.82288361157878 11.32386061430765 10.957295317668464
Li 13.647728647461067 12.175516391685477 9.989783576593938
Li 8.781545016955574 8.086000384085846 13.002044430426235
Li 13.016177145253748 15.208340055844399 9.702592327689672
Li 13.058548938724732 11.440951340055378 12.789654650972347
Li 11.377857984439153 13.940555261520174 11.584241678409676
Li 12.262101143737116 10.482881316840572 15.52583585245801
Li 8.784180307783727 14.394700730337858 13.334641178626544
Li 14.643231315771047 9.804421122646396 8.43408598664244
Li 9.906481948714248 8.793451812209595 10.248227667457742
Li 14.646632539052145 7.276541386233525 10.552754639599176
Li 8.85901119062786 11.32100990364797 8.874078845483108
Li 15.409488391695799 10.199532095021453 11.46776408579072
Li 10.987208698454287 9.510891909059259 13.052680064111513
Li 14.07312167597832 13.966070762739259 12.525103108279055
Li 11.66618753957387 6.902245928697071 11.995850038046544
Li 11.475994446014013 15.458918385176354 13.940090411450383
Li 10.701231075433268 12.467815834190393 13.862949746236955
Li 13.775183627974394 8.572086393593501 13.423395330417893
Li 12.844165411681729 9.337037177686193 10.633008017440325
Li 12.969755062702784 13.304912095336181 15.324911966767338
