31
Energy = -46.26747882 eV
Li 7.052641341739249 12.3919541955583 12.048989220816233
Li 8.717086721800303 11.362765641743414 14.547697208296302
Li 8.016475050394158 9.396078768501932 11.76023739529784
Li 7.99670943531471 11.206765844578328 9.143038491314122
Li 9.87452720865413 8.841381976882056 13.870859835498798
Li 8.72921038614223 14.00261640668127 9.955405172097187
Li 10.031772327616157 8.916998369023194 9.540892119667578
Li 9.542524625077784 13.96733739436219 13.389108364670467
Li 9.690602160451878 11.673327186481325 11.62305345391801
Li 11.570300403402227 11.41011508447618 13.854059656747186
Li 9.265605677757396 13.203717777800723 6.978569468821428
Li 11.065963387434081 13.053199157898408 16.018677651301473
Li 11.285041275257495 10.012383646845887 16.19693793322832
Li 10.60842994439887 6.90061301464562 11.812931829830093
Li 11.538426782498117 9.552478748814094 11.688277563678193
Li 10.823666348433491 11.939834089763854 8.91657892488384
Li 11.291967832294198 14.118283340624572 11.138704259058729
Li 9.979872538975556 10.184866786741681 6.85052642152708
Li 12.595863936296569 8.051711577205982 14.074679260899005
Li 12.906479046661913 13.860862828900105 13.571606434144162
Li 13.889761540470186 11.601118120539915 15.414308597333102
Li 12.22563513431129 12.148091153304284 6.470814154359579
Li 12.943466126851279 11.955096620649694 11.119859556591633
Li 11.707315964149636 14.551516681129987 8.32626937854936
Li 13.456237369358213 7.833358945102599 10.912674618246392
Li 14.213672512283061 10.078900332094936 12.92252580225542
Li 13.991213526064266 14.896180484273458 10.702641721252814
Li 12.728405506253582 9.886076606135166 8.66703373439577
Li 15.40671899809615 12.677126587194223 12.245863426079955
Li 15.334252816486797 10.31728830076235 10.216479612133691
Li 14.114861691322847 12.706231258733055 8.755905909135048
