34
Energy = -51.00369082 eV
Li 8.541622182184408 6.963052823804939 11.428368979926594
Li 11.308151655453774 6.386379267248668 10.78103601105189
Li 10.526351235928034 7.873702365169976 13.557074167805975
Li 9.58731787186998 7.872011819761227 8.394709333574832
Li 8.08905963759438 9.421066842038169 13.166866681399878
Li 7.055789110550113 9.075972619245611 10.110136218178814
Li 8.037488986821781 11.508595356309517 11.220854546382842
Li 10.18806428064009 10.557285768749198 15.465847754356192
Li 10.109554886799858 9.24963560971734 10.648043265459386
Li 12.820174965923579 8.482756653369464 11.970695552345232
Li 12.92446354151731 9.172063600736205 14.869916332691286
Li 11.361851423108176 10.507742294541162 7.72755093278162
Li 7.98217418947667 12.29458280606343 14.10241413960487
Li 10.896308325567007 11.02914616835685 12.841143768279457
Li 12.808467583904998 8.221724109215664 8.942677516793113
Li 8.47981278943835 10.969302501670004 8.265164071642312
Li 10.423140717924921 12.309334543405132 9.874247658717609
Li 8.018557011481114 13.879722474308481 9.381927840054246
Li 12.878137277025333 10.758432954758954 10.252954185647326
Li 10.18198233285616 13.352470489696456 7.219080387348572
Li 13.023994123376994 12.186972232446534 15.005115102561854
Li 10.587490539551757 13.733724310842684 14.640455887354028
Li 14.213666213368807 10.857483498877526 12.773241906203333
Li 15.340019603702217 9.223726091554786 10.516420715502015
Li 9.427421274894414 13.882589287121952 12.036343523109041
Li 14.475740171471173 10.626574608779109 7.881461396284068
Li 12.495697142574627 13.352442968322354 12.044478493020943
Li 10.89608940254233 15.11907304416751 9.681686652945018
Li 13.271146146858491 15.110650088169896 14.194051521111124
Li 15.389419777172295 13.42271614237119 13.159632983312212
Li 15.233584886797475 12.37091265396034 10.348109423614073
Li 11.141409677942042 16.108962647179624 12.50213536715291
Li 12.952807337150976 13.241472471850702 8.657585243248494
Li 13.930435718012008 15.337600715360947 10.93193068485247
