38
Energy = -57.92569413 eV
Li 14.678572307591846 15.978917081638942 13.00042437764282
Li 15.38517166074713 13.125707733527726 14.156009576330442
Li 16.22951700829222 14.036456419211426 11.213141935114376
Li 15.105901723264486 11.176561182165175 11.760495422971859
Li 13.708624140966894 15.666581448821603 9.895967718985586
Li 12.612099256537643 14.170298778882396 14.794354512086935
Li 11.690492413479419 16.024104132333793 12.259918215797915
Li 15.34518075883905 10.091660808531813 14.730762428408388
Li 13.424324274798167 11.622161120130292 16.424419583681395
Li 13.570412654252852 13.7274725321929 11.943152953566283
Li 14.094776100036434 12.730182504656486 9.23247434649133
Li 13.017338485570695 11.325755186886274 13.637787073283272
Li 10.88443038331681 13.34516244120777 12.73421506537536
Li 11.192647986684186 14.013681320433339 9.994459978079375
Li 11.725620566528312 13.734288826851383 7.345389377275381
Li 14.492225177992434 8.264602825058848 12.585147588137895
Li 12.205308976362831 8.965085505542921 14.785260193330053
Li 10.548667256086583 11.770450495703622 15.382314213455123
Li 14.24985090146492 9.20516047648452 9.728956951291876
Li 12.082126969462855 11.212687982961754 10.584546356660335
Li 8.800285990467241 15.223510082744077 11.297770584953158
Li 12.738480201064952 10.764448389420021 7.476404900860245
Li 8.204081743915255 13.238829773117564 13.587806211293191
Li 8.889821197976651 12.393874857530868 10.890006847538242
Li 10.243366372500306 10.641345642861943 12.854661797448081
Li 8.461469353388363 13.849526149007428 8.53284575131312
Li 13.16674447283825 6.353315814824912 10.431388643733007
Li 11.921698355942663 8.536088970312747 11.778589717086971
Li 10.087385777541215 11.327456860376845 8.431841400702396
Li 9.349602623625056 9.411579835836342 10.506173858265296
Li 6.327380879040095 13.331854464857079 11.010456726531231
Li 11.588419163756418 8.470400547424566 8.916206571793925
Li 7.309043917995492 10.535239154349007 12.38272887551466
Li 7.118347150442466 10.830071380807 9.241927037629686
Li 9.29705563902556 7.9640785480591 13.106045273233825
Li 9.909955974240733 6.577024674928667 10.42138510576104
Li 8.685337228605038 8.372352761239865 8.007307856727625
Li 7.130620901064018 7.889184654149688 10.6246085748597
