34
Energy = -51.6905249 eV
Li 16.096568544993392 10.598806871309453 10.092275098853955
Li 13.1164500270101 14.042532090315984 12.398992768006707
Li 14.902496331581142 11.643239511291004 12.950231337881005
Li 14.082716442398562 13.2300246582215 9.755101064322524
Li 14.825506383683184 8.323081084132326 12.155137064033953
Li 12.587637928238085 12.681220753119483 15.1699685037783
Li 11.51707757212502 15.530194815392527 9.924167143613015
Li 13.83793990679394 8.320071040577545 9.278650317121254
Li 13.1450085568654 9.64320949767872 14.444056821812476
Li 13.929110477327127 10.878522050826199 7.747686762155505
Li 13.518350926783055 10.746874170502002 10.77133945038234
Li 11.198869629266634 12.995562401625156 10.54849618521083
Li 12.125307862466103 8.468304772166297 11.689748680421891
Li 11.646732664587887 13.114675405820318 7.804298095454693
Li 12.644870525901766 5.945435418598302 10.814173948013972
Li 11.773654286193464 11.463388425982668 12.860838887915623
Li 12.296789450644498 6.706203449539298 13.735745540670006
Li 9.655787388601203 7.080690543790656 11.75824743026367
Li 10.268235362426923 9.130204220013042 13.978416695197573
Li 8.898894286710364 14.14431225876159 7.74292721489667
Li 8.981638044689678 12.222533321788346 12.159508950956376
Li 11.464214110846884 10.493859727085797 9.072205479105142
Li 8.946457516195117 11.96125571205461 9.240394284323962
Li 10.323169855952672 14.432201097939965 13.278173868902913
Li 8.561495659632804 14.578820653840825 10.756412739075214
Li 9.889943019094174 9.932109145376439 11.187941377897427
Li 9.555325661268228 11.911134837325921 14.841788765991435
Li 9.615022051809184 10.743121808494626 6.89166751369991
Li 10.774654529345797 7.856861908409826 8.997633001068682
Li 7.48895451376038 10.025597949985793 12.768385258759238
Li 6.773864369100202 11.851106645534433 7.522200530580432
Li 7.135464969452304 13.537045553213915 13.548713372399474
Li 7.850010756847439 9.434509152853572 9.369642747436911
Li 6.577161339878975 12.159012019017352 10.642442248187368
