37
Energy = -56.68889099 eV
Li 11.003700366302315 12.269986862998724 7.858756048954718
Li 9.814669242431068 15.0649776337936 8.725381273515772
Li 9.256467729315695 9.759123992941602 8.015437213676222
Li 8.33331879807327 12.41578824543374 9.593547031672047
Li 13.239042648525857 11.521630338080449 9.76761237160779
Li 12.431799379478706 9.189744799172848 8.289508994553456
Li 13.043652674108204 14.40916724869539 8.930100648310471
Li 11.615769353606854 16.02641323755911 11.367660991989345
Li 7.551423644999945 7.583251030643145 9.077081625149283
Li 13.46840418165272 13.648513022737129 11.7229492196616
Li 15.606940744279015 9.735985073441057 9.823196413424435
Li 8.062594923620166 9.66144363738806 11.059044364638192
Li 14.92040706475491 15.838373248621252 11.073676473222468
Li 10.583937860819981 10.430822228056421 10.271440701226826
Li 15.826518509808254 12.946475048659627 10.067448732012517
Li 10.809260413462953 13.29014682762284 10.540139213383673
Li 10.339656848342695 7.726942102844625 10.173439480231679
Li 10.34263242751654 16.515776785976318 14.255894720770701
Li 16.015067340424007 13.639508930076627 13.082399585321308
Li 14.869649668392443 11.088828340147506 12.24531886934542
Li 13.034356590661458 8.92701501724142 11.34191350812729
Li 11.035479581139688 14.021593326559795 13.420114712442412
Li 17.562886334746175 11.075795681767872 11.987990969499451
Li 15.8456277863682 8.605934941183595 12.788634388300862
Li 9.075841131520134 11.935679941409377 12.7064403124249
Li 13.376285162299558 15.59658726931292 13.888637969448183
Li 11.90050146735942 11.367350715642413 12.557791213525999
Li 8.768227973783173 14.891409103336734 11.91281271664134
Li 10.33971027111513 9.124184767465506 13.130149502384143
Li 13.555647021056425 12.638773726130637 14.525854508784514
Li 13.262077880001668 9.692127269192781 14.47521665185677
Li 8.820530588022963 13.83124996081201 15.202399482331463
Li 15.969841420782677 10.991934257606394 14.90473233586124
Li 11.629557075019338 14.211790444781279 16.22978444197525
Li 10.786697152709813 11.529021145122666 15.24622041188766
Li 13.063082940425225 11.510933874166547 17.108431995778204
Li 10.006711563858545 12.379870228917278 17.888092271062845
