39
Energy = -59.58825418 eV
Li 9.055010664275798 9.27576399116641 10.362685922428307
Li 12.759991635724205 12.539238308833589 10.362685922428307
Li 12.379698581336207 15.241357219238335 9.491270613181143
Li 14.179219303359487 14.425538386879474 12.001740235094639
Li 11.209585530714593 14.17061993279599 12.001139047219896
Li 15.04700333210004 13.404544427159419 9.06003448995479
Li 9.992748290060275 13.468577325116678 9.411944813024496
Li 12.838873545970864 12.28820576947488 13.526708108787174
Li 15.075057041913144 11.351506772917542 11.446393708673927
Li 12.454761563020586 12.825643593542592 7.474772483985862
Li 9.664115662465807 11.720903829781717 11.872590595175108
Li 12.150886637534189 10.09409847021829 11.872590595175108
Li 10.90750115 10.90750115 9.025362776978882
Li 14.002019701014179 10.400030198435319 8.795905535148881
Li 11.82225400993972 8.346424974883327 9.411944813024496
Li 7.8129825989858155 11.414972101564674 8.795905535148881
Li 8.976128754029139 9.52679653052512 13.526708108787174
Li 6.73994525808686 10.463495527082458 11.446393708673927
Li 9.36024073697942 8.989358706457404 7.474772483985862
Li 10.605416769285409 7.644382367204008 12.001139047219896
Li 9.435303718663794 6.573645080761666 9.491270613181143
Li 6.767998967899951 8.410457872840587 9.060034489954791
Li 7.63578299664051 7.389463913120534 12.001740235094639
Li 12.150509892525752 9.813170319328252 6.631008415454954
Li 9.664492407474242 12.001831980671735 6.631008415454954
Li 7.854944398821656 14.414556164184415 7.966320365951675
Li 7.5432503719188535 13.507632133250965 10.990333322798785
Li 9.332058210336944 15.99805222969653 10.52448117874305
Li 8.931677361544118 14.609921459173297 13.420426082555604
Li 7.38433773754507 12.025347517745717 13.889739958296923
Li 11.971530181513497 14.952337100099593 14.622867168493245
Li 10.270101127332195 12.298802841410163 14.693228992959197
Li 13.960057901178335 7.400446135815588 7.966320365951675
Li 14.271751928081137 8.307370166749031 10.990333322798785
Li 12.482944089663048 5.8169500703034664 10.52448117874305
Li 12.883324938455884 7.205080840826699 13.420426082555604
Li 14.43066456245493 9.789654782254285 13.889739958296923
Li 9.843472118486511 6.862665199900403 14.622867168493245
Li 11.544901172667803 9.516199458589833 14.693228992959197
