39
Energy = -59.63372672 eV
Li 12.979242992747759 16.389352380341002 15.565920835779052
Li 11.39550056339328 14.252315134550654 18.14017842525806
Li 14.387997144896811 13.742868737220256 16.982580201218685
Li 15.946880219851273 10.93956374957582 15.817114892336008
Li 15.40957616078108 14.797505436275568 14.132748766427648
Li 16.532666881796175 11.766040274015966 12.587875384468326
Li 12.660037857109948 14.793750560800285 13.085799109010486
Li 11.97750395977791 13.909644403534518 15.538148971099845
Li 16.43818198882213 14.72645516871999 11.220544544068375
Li 9.491064421297745 12.40191802411953 15.648392826881615
Li 13.450519172698577 9.594120318401394 14.74974612507537
Li 12.329423707925637 11.445962943690123 16.783104771793305
Li 14.023960444081006 16.559413427257294 11.468356705090292
Li 15.324252447600806 9.352819843583827 10.167235733181032
Li 15.854280877320857 8.822555376872442 13.28527163811677
Li 15.894842137151137 15.29940120587955 8.270348150819197
Li 14.178509790153843 12.378465978915038 14.434925197754874
Li 10.918280549179519 16.93071047894745 13.241143236058791
Li 9.695711535553986 15.47436374024057 15.698914572384412
Li 11.661113970563736 11.803055743916355 13.771658940945814
Li 10.480948079726144 9.297994096499554 14.465458600122245
Li 14.228643947968223 13.18963093315271 11.703267759943875
Li 9.973826474898546 14.092105602104345 13.214761629821194
Li 13.539978511060625 14.424657998220841 9.393969056150585
Li 12.81501997002002 7.742148971581303 12.507520646400982
Li 15.805055600839081 12.417871664583805 9.422233074533189
Li 13.938313959128571 10.514885205917947 12.051569746519093
Li 11.419157009283284 12.804081530479985 11.074979501492175
Li 11.12922920101269 15.546620386583246 10.569715878256563
Li 14.038314414935574 12.96887203144092 6.985076331324079
Li 7.316417593444891 13.95378938747829 13.764507758037189
Li 8.836791761431925 11.347608276028408 12.676932422654165
Li 13.018815486907037 11.36006201447844 9.35570500136241
Li 11.3166833933202 9.990903410436443 11.837269162999513
Li 9.533563024707147 8.047940881277786 11.587125999599229
Li 10.958189963236682 13.372494531949696 8.293263240927118
Li 12.114407940112105 8.559169672902065 9.670785656166359
Li 9.784688375524869 10.76904555024223 9.665049985535534
Li 8.668959157322178 13.661779404513462 10.649455779658256
