31
Energy = -46.16684135 eV
Li 16.768995548162483 13.058693058292326 13.446945683759905
Li 11.961869100684734 10.616830205452292 11.908236831256383
Li 15.77750984309512 14.322362233520455 17.1983000287454
Li 16.99606076724018 10.275473637175555 13.792306248831457
Li 16.81255705155796 16.37725331909375 12.995642662096204
Li 10.592306934600023 15.311341334880105 10.738248346646277
Li 14.92664709983019 17.532482538552458 11.014332504590913
Li 15.121682860559732 15.009940259836851 14.586271999315333
Li 15.011745780911896 11.88944967246231 15.719059458013176
Li 12.688553002485442 13.069464132689053 10.476694646688504
Li 13.897360051015376 12.56730182169001 13.10409497014173
Li 12.557208730145256 14.175885757441796 14.873177017194964
Li 11.86413863797947 11.417719982862101 14.986634505334182
Li 13.384169605960137 9.94714824638062 17.095020690929356
Li 11.984987636953784 17.989743551945374 11.342808194850123
Li 13.205943889132689 15.846657733954473 9.32018070808502
Li 9.883003038773573 12.268716849551371 10.069329345576747
Li 17.748678675370385 11.935259391554931 16.320210377413236
Li 16.19191624627528 9.266200882252097 16.48732902657761
Li 11.023320544122265 16.35175644682497 13.86670661145826
Li 18.043682721155275 14.815932658777234 15.343269987664137
Li 15.230132131337758 11.086837019805069 11.256093366963722
Li 13.032118026504317 13.070200535892972 17.448191994036232
Li 13.939988461337004 17.660238589978768 13.899216010050534
Li 14.136261261589153 9.694997942179876 14.008370118275929
Li 16.28511052057756 17.290478885873657 15.872493118311182
Li 15.594587669955706 11.516486854128935 18.510853548185036
Li 13.148239808666245 15.516738257326974 12.182050806934141
Li 13.304791660373517 16.270752420850364 16.588344108150945
Li 10.867079790180389 13.27701679229916 12.708779287360866
Li 15.418431328950755 14.361823538390137 11.127978536706888
