30
Energy = -45.08476538 eV
Li 10.97782750941237 12.729840617259365 7.497806438770503
Li 12.670431551819101 10.451492547416567 8.605511653203994
Li 10.714963686277365 12.11855800364693 10.166256846409743
Li 8.247605671800459 10.78868836205266 11.256326266265509
Li 13.306896812527244 13.415662535743056 9.39201212899716
Li 9.665867217654524 9.950652851050766 8.61725117267417
Li 15.625401845023223 11.651860767759608 9.892653572597427
Li 8.30061772563214 12.883999687824074 9.070900208189796
Li 10.965017993150576 9.215507849722085 11.214706371612095
Li 13.223636209328621 11.090531499412922 11.452133410041666
Li 8.6654472421208 7.778285988095129 10.553808938839058
Li 14.9238098571925 13.496120010806697 12.180023444496374
Li 11.704061747541845 7.395964617058599 9.378700497261336
Li 14.73227911722587 8.902473471264244 9.845750292209173
Li 10.72321076469459 15.054506566707317 9.672744695185736
Li 12.059637836159542 13.995175214575166 12.070553581054636
Li 8.970230550747809 13.87671086164992 11.889357630748771
Li 13.475537184372127 7.774665085822029 11.995760186085002
Li 15.376671098836631 10.243568318947117 12.784055618204052
Li 13.488205724884978 16.071623624691078 10.96535176442421
Li 10.777692432704788 6.695641220074439 12.451213465161995
Li 10.58955157689269 11.571983654287715 13.038092070960285
Li 10.765424503564796 16.40788181362708 12.490845731522466
Li 8.012655012052646 11.992096676815196 14.08464272876048
Li 13.168723435136341 12.24410118209329 14.327076167247553
Li 13.308236884154882 15.444846744053702 14.035998176911558
Li 9.161106366233208 9.07633818471316 13.588317782644411
Li 10.532728089512958 14.038622308656864 14.57459392880086
Li 12.243545398062544 9.360906191346636 14.003181095516993
Li 10.464756305708663 11.123470893252989 15.746151485629673
