36
Energy = -55.4970419 eV
Li 12.68454268022279 14.502127616143788 7.887215973092981
Li 10.947074715320511 11.799119912473754 8.226325349748409
Li 7.833429106438015 13.208241059648321 13.50895280636271
Li 11.774780722511762 16.665868850812096 10.268843580110735
Li 14.054501948761468 8.665666959316606 14.37160403320178
Li 11.612417745745683 13.773190272687348 10.291729189271273
Li 13.000296667254503 16.073775532748233 15.526368245505385
Li 11.39615382484591 10.861897717914204 10.90821612543223
Li 9.18642459815427 10.294525318956529 12.806188971943376
Li 14.898274013492733 13.411813167444727 16.457631469827398
Li 13.888665671312738 11.922264934361186 9.38829173857339
Li 8.884389793145402 12.403482837564518 10.580210180567532
Li 16.11339931931222 10.33789835170649 16.12111905809854
Li 12.534281249614551 13.325154915089719 14.92285204992855
Li 10.946710256406996 17.74329052282608 13.364500467926614
Li 10.483726979721366 12.885125694372576 12.881658074987387
Li 9.716765430680455 14.78879368180732 8.676217006801918
Li 9.546385956681698 9.309693996129752 9.698575515402139
Li 12.286678299350013 15.36894581279209 12.78773781108251
Li 15.04722975918781 14.488629441166529 13.588558699835204
Li 13.276096875183905 12.748959333923374 12.187299211580722
Li 11.590942130725951 8.244425213846748 11.937764312046745
Li 16.746571729063085 9.750029624912061 12.997687180051953
Li 17.357754584318645 12.570046734729004 14.393916436754841
Li 16.0827320674787 12.267164161206361 11.476025064852845
Li 12.941190178139859 10.97112585798993 16.520481265171618
Li 14.102791803745736 9.927686602425794 11.633466937732708
Li 12.724847217627737 9.103795789663971 9.08871943840202
Li 12.03301279888752 10.588263882504146 13.735279682212553
Li 10.148106735035212 15.0760061835215 14.9037942669464
Li 16.05535320378337 9.719838975455039 9.586890332758877
Li 10.018447602367763 11.999801172466535 15.547700253807992
Li 11.780538777794762 13.83231450505777 17.514591405038516
Li 14.373202286202714 14.834796665377254 10.546427575576814
Li 9.488260088378649 15.38744853171714 11.880870692204331
Li 14.809943639727889 11.514710625864634 14.152210053784257
