37
Energy = -57.29626393 eV
Li 11.040948671675919 16.56827826389979 10.948284393134937
Li 8.720087415209136 15.747427340605666 8.992416885962358
Li 13.108605566531237 14.131446133721429 11.146214814889142
Li 11.746086917657765 14.800483367704528 8.387009322706703
Li 15.999198356075663 12.956383141581556 11.773756856976052
Li 11.101004302958389 14.495911725992158 13.430888009000665
Li 11.84762574206457 12.120131251541554 9.268123735249507
Li 14.006241607836449 11.168214548841084 11.00501102459164
Li 13.657622907452968 12.492379960511743 13.729810416075706
Li 9.350286037216181 12.828491010387374 7.9810828251434724
Li 14.593894448618645 12.807850430430584 8.7068422675928
Li 16.395001143293438 10.344154579302966 9.95690798507002
Li 10.053801100412606 14.04644008476648 10.674956044394058
Li 8.334863448839485 15.603219576052162 12.080058910081904
Li 15.611063023070184 10.225260888498626 13.124967470488528
Li 11.416949383259398 11.952357306624945 12.130953424522712
Li 16.199215405156295 12.451906147727113 14.972100287086946
Li 12.13403865751791 12.226663014055628 6.542461773952492
Li 11.674533626181379 9.45570531255563 10.677760016413295
Li 7.27607365153319 13.170200816876518 10.31826940369142
Li 14.226124616206386 8.241012835668624 11.046282105265764
Li 7.375291643493103 10.357619658383758 8.717275470534368
Li 8.69750374073257 12.531005821318049 13.029807776376444
Li 13.641924865047972 9.84162940485164 8.42614871020013
Li 10.985153092029691 11.518367834938774 14.962643002478465
Li 9.304365632966595 11.162531655898762 10.438213062563094
Li 13.841351182850083 10.431378343388763 15.87341818267356
Li 9.759089392820412 9.61999787795203 12.943771491080025
Li 10.456390043661534 9.851622120302707 8.035232889394923
Li 12.717682368346434 9.629627039885275 13.368803766775365
Li 11.840937076059587 7.145040472141627 9.223286320369306
Li 7.083267624598612 10.069403997246665 11.956543439731371
Li 8.047207186697088 10.063002603937123 15.012596375022977
Li 9.060555635827276 8.170088636636772 10.420778674003985
Li 10.746672438853029 8.420014250937156 15.282968253766041
Li 11.27179150563383 7.148610004872886 12.33861009731262
Li 8.257367149491548 7.37737533130531 13.398913198690119
