39
Energy = -60.02412017 eV
Li 10.737172840113423 13.831204634992309 6.694905802106257
Li 13.318581260388546 12.021243963121501 6.957092733155889
Li 10.469620641126747 10.743281558475715 6.620235363684093
Li 15.885700982278705 13.34136362822765 8.152167914226604
Li 12.871153259765887 14.60699584217659 8.771928990782028
Li 8.358019390130453 12.561183064417841 8.21846384097286
Li 12.510515699302525 9.465230697304603 8.91993307086259
Li 15.60223261800988 10.246178790479709 8.404136190827634
Li 14.952307948345933 14.657887059604 10.84531317095141
Li 10.04261500872824 14.772173124706267 9.737543404347882
Li 16.719485381178714 11.897887979633818 10.857553619403184
Li 11.192551580728878 12.150099059427161 8.86973478767368
Li 9.315892809909718 9.813521080281664 9.357528098481449
Li 12.272160659180564 15.895989368950058 11.841766803544388
Li 14.040801783314041 12.142066568342212 9.741984200046758
Li 6.696920839185413 10.960811045588468 10.428355205927376
Li 11.563162230350908 10.400933873552095 11.38857763434072
Li 9.15889061181514 12.247524872893791 10.999698429149333
Li 10.439666367982435 7.651210144605411 11.153227027419213
Li 12.08219275672439 13.187020862328662 11.553151049896837
Li 14.51872520735279 10.043652721415148 11.282386747870953
Li 7.352008493013808 7.778496612804877 10.56967680045659
Li 9.56176682129887 14.506976464827552 12.812492638584885
Li 14.69783234503363 12.704122044515108 12.924328801567903
Li 8.645826921169578 9.63359509068863 12.273429198240398
Li 7.123589701547563 14.101698110369519 10.740931645429402
Li 7.385724423492671 12.247517298497248 13.269584768485705
Li 8.498211122152904 7.09335453582964 13.506715102357015
Li 13.174679868794502 7.972104869229587 12.629529154891756
Li 13.056485866310595 10.751875667399862 13.830416447244277
Li 9.191054799431821 13.189129659450254 15.71592335151036
Li 15.879904348675224 10.111115182793402 13.822859973731353
Li 12.20394362522848 13.687756781153704 14.47158734991645
Li 8.507974243465945 10.088797727254056 15.26290132407721
Li 10.229050447957658 11.71804428145867 13.657000808296912
Li 14.4666624901894 11.903042090006641 15.945937953595578
Li 10.874128587767453 8.822927914352173 14.074767537882435
Li 13.630096458763816 8.84712395420756 15.66370903455342
Li 11.444795878208705 11.043459165187098 16.222571980868747
