32
Energy = -48.29396587 eV
Li 16.54408254522219 11.905408959951421 12.149584714544508
Li 9.774524955724578 9.32864870723122 8.943209671746372
Li 12.98851963333043 9.487676280077244 9.017163589805012
Li 14.390998813806041 12.047902840812629 9.85868292785218
Li 7.095143959458447 13.565462156158606 10.139013233294731
Li 8.474689908288052 12.641111167364661 15.202751411215722
Li 14.694764197018175 11.997557126872623 14.723796193650339
Li 15.709374457915722 9.4230361104355 10.535403381854728
Li 11.718992800176386 12.667470213481096 11.434582774647515
Li 13.969334788348146 10.902992017159416 12.210996278211141
Li 7.7858330655361945 9.58145927070404 14.76914124676567
Li 10.442957718282566 8.104160562552421 13.727333046575335
Li 11.153201978716524 13.629509724771461 6.626880455095577
Li 9.09477286290975 11.663894690778251 10.567667673671082
Li 11.51503043818722 11.87081256546717 8.742276983575945
Li 11.719049166337639 12.825174767736677 14.31985225450223
Li 12.584854985734012 9.916031233258998 14.236028768686358
Li 11.099201913900753 10.47154032924523 6.3964117555343565
Li 6.805956248336904 10.42316818558421 9.55772489874612
Li 13.261823605037053 7.984562077214763 11.926829912667753
Li 8.440256229536434 9.007947251474967 11.710339029775577
Li 11.321434506695327 9.902300778517509 11.336044635209731
Li 8.738563248447148 12.064892947704541 7.727882853749312
Li 7.039848706691897 11.634646103155655 12.595105045878036
Li 10.42987531190732 10.492780669211626 16.148875862912575
Li 15.608757920612527 9.24596700769603 13.693609468016598
Li 14.062567570277253 13.923925742243659 12.292036864911013
Li 9.992978279009801 14.276398206455118 9.511200161857436
Li 9.289679409613807 13.865310295827772 12.485055739548878
Li 9.790908494171632 10.968031595932489 13.451789041583645
Li 12.957911690572812 14.409250697106708 9.169252618935241
Li 13.725266223241109 11.907532156661217 7.002687245605233
