38
Energy = -58.09706608 eV
Li 17.81014535610789 12.52839500037145 10.067820630447711
Li 11.634201177750244 7.973158309845117 15.67826458114464
Li 13.938494573153205 9.92440200509755 11.738831411452074
Li 15.291421470640296 13.463374311033556 8.51795413392332
Li 14.529025681814534 8.44819103583114 14.280809953853018
Li 15.492014374488948 10.455210590401895 9.213139695588541
Li 16.844417980746865 10.223746143622973 12.137964369079608
Li 15.34569092620203 12.55032504200551 11.229270049755941
Li 17.346720309871444 13.166848748460252 13.086465976735827
Li 11.833620178397648 7.842613130514105 12.470036412494563
Li 12.364805912396356 8.932766084651082 9.362859033953075
Li 9.453796346416272 9.315087909551323 13.635947313353887
Li 13.609023727248372 10.232136304995894 16.716630278051422
Li 12.935041174862661 11.84110708115169 9.590544982027726
Li 12.288885752481809 10.17981667663228 14.25745973150779
Li 16.222767385281074 15.18001048438945 10.981161206799378
Li 12.762735833660434 12.527516879408306 12.517010111564135
Li 14.977670912832014 11.433985316198699 14.15412295915173
Li 9.277862167598487 8.570551034450856 10.397394152727413
Li 11.09678424900909 10.395883792527089 11.501145182550388
Li 14.547995574801217 14.41858185010326 13.58693397451752
Li 13.156004979315954 14.676833798028602 10.558260588595454
Li 7.309595050789967 10.547554597367116 8.571726985092111
Li 10.540739121688931 10.857833595009586 16.342383564079036
Li 8.3346295288399 11.298682084995667 11.258171288954044
Li 10.095046267758317 11.131446683186113 8.83865699738345
Li 11.399539204163302 15.06325148959424 13.180821676837056
Li 12.616181865077134 12.952378020239237 15.411084946928131
Li 13.774950470524843 16.81806957812174 12.351268985897724
Li 10.160620427558342 12.159064650078435 13.623459102277883
Li 10.540062394471999 13.265901178916835 10.867285633293971
Li 12.40497570076641 16.23444877076276 15.38206399631203
Li 9.95788480486292 14.04794877166995 15.7152781513613
Li 8.14300338137731 13.596143713553342 9.352140100156529
Li 10.106353799323074 16.164414665168174 10.931643749289192
Li 8.398898695005425 14.16353733805885 12.503786607460611
Li 11.308797302466143 18.086193313903497 13.09513385540275
Li 9.232933842831878 16.505372016817642 14.23485540600825
