33
Energy = -49.42155628 eV
Li 10.325743508016332 15.972424568670125 12.868455955883201
Li 9.39715316653251 14.562779573557474 10.186350952784084
Li 7.475930274343397 14.32095529539868 12.606652818450272
Li 9.341978681208532 13.922120076771247 15.201364781726914
Li 9.162492280791048 13.272366970578094 7.589016771281595
Li 12.183664158167094 14.332898760467675 10.928819034359343
Li 6.671884706300811 13.734642023402373 9.32810199455082
Li 12.26788089608217 13.934072375542836 14.04659940948526
Li 12.141788850236784 13.401520366678072 8.100758639680336
Li 8.191491643884213 11.142744774142455 13.755361204308485
Li 10.030139095556542 13.224727060870723 12.648883073134906
Li 14.746134385947352 14.117130362986565 12.423702497335384
Li 8.09413064280737 11.950940091673525 10.888766173390659
Li 8.069022011450409 10.688742221450605 8.21854778568704
Li 10.615847184420941 11.591689812311476 9.55272324560273
Li 10.894649785979896 10.891918708004892 6.6482787503578376
Li 11.041969505232196 11.24711605415929 14.808561406346238
Li 14.615171698869291 12.537005568525464 9.697421362865319
Li 10.428778928728082 10.594754316956351 12.193811396382394
Li 12.976303956708813 11.768511679674642 11.808044728531607
Li 15.878437343461426 11.258949158987745 12.134409008018636
Li 8.57583363913335 8.958576558913737 10.956781890031207
Li 14.290875650292287 11.68399827676606 14.501583034853699
Li 12.958374964300583 10.274374396817707 8.702065403298477
Li 10.295418098283184 8.62173005941533 8.463506339321274
Li 11.66414435139409 8.626616664695979 10.8223413068056
Li 12.89749731728666 9.340148416347882 13.35901384360035
Li 14.49612985503254 9.057772784021601 10.82806499562875
Li 10.195701035759607 8.084631235303258 13.372883700964131
Li 15.543376841172087 8.55107683877444 13.5588005142594
Li 12.92909712736347 7.131325272078606 8.858761776857529
Li 10.284081839513972 6.2866840528133725 10.57059407578904
Li 13.086151416832454 6.624097492141055 12.122876525659814
