32
Energy = -48.74448412 eV
Li 6.609656947740574 13.006807225586668 13.03890225554981
Li 9.770789557149532 13.274710540965334 13.534897502674603
Li 8.628755445523558 14.697309314702048 11.082182537169993
Li 6.163914441100106 12.769002519880592 10.012418598517872
Li 5.973712637852022 10.226237679634794 11.796439888244008
Li 8.24821306243603 10.426808346701439 13.939724442435848
Li 8.294044257722632 11.699790113356926 11.37357779746103
Li 11.80919153740922 15.432566195169896 12.203089369717757
Li 12.932835337124397 12.826801153601803 13.132533153787733
Li 10.819539676742423 10.700002322832152 12.554292151171913
Li 10.913434169774126 13.075575660076527 10.897680943882056
Li 8.766482170990553 8.677220429266255 11.506659986626776
Li 7.545635188279535 10.0355851368855 9.020778665039575
Li 10.67730084214363 7.985553688782191 13.734944402273248
Li 11.141604502809022 15.202670655674504 9.119155986407769
Li 15.003477787745743 14.965743709398005 12.835469636126687
Li 9.032366546981804 12.841099167222916 8.666946881183073
Li 11.78345209942503 8.284499092925229 11.112946259503397
Li 13.219290519815656 6.489782873156893 12.52706886125399
Li 15.069703951543657 11.371526973583837 8.868497740881063
Li 15.484376615721851 11.813446282689066 11.973757464223867
Li 13.452684107085524 9.62204784873541 13.279709175962362
Li 10.337034531494083 10.426165094337211 9.690085848380308
Li 9.972771835204618 7.693669232256885 8.823537095344815
Li 12.12280273399687 12.336121104654856 8.313021673320643
Li 14.743090464855111 8.716440040943159 10.654918307066023
Li 13.759928232350255 13.851154048275662 10.455505526515383
Li 10.396391833580106 5.897864410779989 11.399751522669602
Li 10.003925203550503 10.293448573683502 6.980675836449066
Li 13.067089628038032 10.970734410489905 10.749309615145215
Li 12.816969428991401 6.321252308129192 9.488508368781963
Li 12.707859178323115 9.273859358815388 8.396895001388081
