30
Energy = -44.55614647 eV
Li 14.313477249117502 12.451224730593072 7.154791078643389
Li 12.223322006288765 14.549813720328332 8.106135154741676
Li 14.316512231686046 13.52330491133971 10.171659824845104
Li 11.18315671337135 12.144225382503308 6.284679357796994
Li 14.741875945263025 10.404368522391009 9.526743447740898
Li 11.389582910458847 13.955005913839372 11.028958201554824
Li 12.867887553457681 9.671944421155635 7.16918841946565
Li 12.32917565078709 11.876749048642761 8.920994666794325
Li 9.531112089115775 13.06227430222284 8.625916325766138
Li 13.140575954870382 13.693167952636077 13.423625189309217
Li 7.9952471405262315 11.297066757798051 6.5858741739088345
Li 12.991401987410987 11.341528171299789 11.765874182248107
Li 7.54455283458465 10.887556606770342 9.689904125059327
Li 10.191503142467234 14.614775194572065 14.15760225663187
Li 10.034683853600919 10.118315967073178 8.117727675124604
Li 12.065582059188529 9.07491609183516 10.120338504194395
Li 7.581648090260839 8.465111883843527 8.20999038593594
Li 8.513406032116034 13.374563260886092 11.647101691184247
Li 13.777211929014324 8.641660528325817 12.741877877476208
Li 10.212954887203159 11.22976714584447 10.769447395146598
Li 12.771279428165835 10.7799114409861 14.844650319553272
Li 11.032043240523837 9.348177495242828 12.995192114438723
Li 10.65150181040948 12.119652335973884 13.369392913196275
Li 9.165488108728908 8.527182575909384 10.789075603082994
Li 11.353517507638225 6.750034594701267 12.189639326608216
Li 6.40212591537105 8.420980666784336 11.350248022245136
Li 11.755172449607857 7.790212488980998 15.093310770267063
Li 8.148465862683567 10.493536992704945 12.768010973203333
Li 9.762790386991234 10.22211899445356 15.411492329726194
Li 8.761011982146488 7.733897528857429 13.68579496242004
