39
Energy = -60.58783001 eV
Li 13.311390941735729 15.600281364775247 16.16667456330911
Li 10.369586903984787 14.230141605338671 15.739388444058712
Li 8.204146050443413 15.434307712629593 13.58218631807779
Li 11.389527677799782 16.240754177634773 13.543270247550398
Li 12.973280941155354 12.460617098424226 16.79932103268717
Li 9.881482586710469 15.59728438980113 10.759252360897795
Li 14.501266862818616 15.930360989288326 13.171599102258098
Li 15.57667570824277 13.552557944630127 15.164571041007985
Li 7.931603656533922 13.194472139356952 11.17091048983643
Li 8.168146753398082 12.273924029412964 14.347095612377466
Li 12.88771066865741 13.728932815896822 14.27801903416373
Li 8.965771074373011 13.774039265481655 8.1399369281746
Li 12.755526736942144 17.1748769637076 10.75132599702
Li 11.03727442171781 11.414168108181967 14.798244065072163
Li 10.18063982373221 13.66436370985477 12.942200777351507
Li 10.609686840564123 12.863996933630604 10.091523861007158
Li 14.110555516574822 11.022294323239455 14.345182848158766
Li 15.054506360665998 15.051409903933832 10.03097746687781
Li 15.096787049346412 13.064807506779344 12.26740671514856
Li 12.022474552636972 14.816579645770094 8.544218253432629
Li 11.45595564534879 11.712413332865276 7.620226779815507
Li 12.6165065222166 14.570743564686454 11.433314168542966
Li 16.84058761996757 10.91339683390755 13.174583006220114
Li 11.789479440433695 10.160835118016413 10.129087488077523
Li 8.994448082402082 10.66498946944427 9.234282364929326
Li 12.302467352657079 11.946703175471088 12.196067891579867
Li 9.633517320165716 10.861486874593346 12.152852146425534
Li 12.448401700210866 8.950967917630116 15.768743588635196
Li 16.47135980457362 11.931737116089568 9.946082371547757
Li 9.567733332964194 8.874121887805378 14.325582827737527
Li 13.623551465988921 12.48665919812379 9.594847177960752
Li 14.07487692105795 9.806625142465679 8.460814378434751
Li 11.180457775305959 8.411227725775364 8.177360400914472
Li 11.815060414359747 6.663320974497594 13.56062015513193
Li 13.056338226481207 7.634107315011124 10.711449139950917
Li 14.534796426450724 10.243257533727338 11.428038384961452
Li 10.06359738186323 8.057629085550674 11.175921021412739
Li 12.093817291003852 9.263601240405052 12.972327533756921
Li 14.667335920490665 8.16198987985169 13.546963723777628
