35
Energy = -53.75758723 eV
Li 12.324965066593332 9.297023052990697 6.901192474505394
Li 14.186463522075433 11.79211584128767 7.84119817381261
Li 14.7233797536226 8.739888057626041 8.775816369308599
Li 11.080680985050973 12.167995472558253 7.62678451229652
Li 15.324318277072704 14.081179545469034 9.917438594488125
Li 12.929737340176372 14.798533482098607 7.845697958928095
Li 11.984026537737309 7.2828962921713245 9.25601317775511
Li 9.655241305446353 9.337026759579983 8.636099208562625
Li 12.376866643619914 10.036300279243605 9.458109635320737
Li 13.54714256299151 8.474148883613 11.715526847342174
Li 9.9874551522592 11.66302550398228 10.30528527964347
Li 12.651752069348952 12.997292802809365 9.870187019603364
Li 16.740609522560156 12.871427135982456 12.734043239756097
Li 12.738239390858674 15.745013286869467 10.917486218089389
Li 10.390598326407298 8.801694722101603 11.531629226973108
Li 14.943773460900376 11.187559696632812 10.783601428915375
Li 10.223510495601026 14.607140249483644 9.522164728041997
Li 12.266047024083678 11.037129723767139 12.043877496975044
Li 9.865942979555033 16.152535409183518 12.327555822893125
Li 7.627743843483089 10.21608452286664 11.485906548008508
Li 14.619040632627993 10.748995031557758 13.81342947837597
Li 14.022670133559041 13.435813592927575 12.465833254877895
Li 12.076757034409423 12.253510780238148 14.512815330408866
Li 8.123092592933999 13.385223167514752 11.847154339541797
Li 9.587498957274125 11.202002627332167 13.202766439120516
Li 8.60055518654963 8.7893822008745 14.132840191007478
Li 11.73780374728628 9.286335502898172 14.26396919368048
Li 11.021217015062044 13.656657203169747 12.16806444915811
Li 13.085426880978275 10.817690973998603 16.6334615255127
Li 12.307864911607641 15.288731046079462 14.105265477042826
Li 7.123492736897472 11.603262000870345 14.325000683649913
Li 14.62447635650547 13.345437975281543 15.32209442118499
Li 9.44693581747073 13.82873850989463 14.57388075880053
Li 9.875298542241818 11.05424829219247 16.035876386132596
Li 11.739120255187808 13.605981489748505 16.78067665464782
