33
Energy = -49.75354994 eV
Li 13.945394494860453 13.133047344141776 15.152883458241888
Li 14.960266570261748 13.09497163275431 12.038919983184291
Li 12.544098495983064 11.772931309535533 13.45210268518526
Li 12.42192493217269 14.59121967395738 12.343895367944155
Li 15.042661848471461 10.249483172520131 12.209714680856813
Li 14.05119669902895 9.81511264141416 14.930467390638848
Li 13.683074062727256 13.958582582050425 9.1931409007374
Li 11.605827861682712 11.098794785056786 16.094901653081255
Li 15.36622163511406 11.437018090270325 9.35022477137296
Li 12.733458856124498 11.843977872915023 10.659375327800321
Li 9.37845765703216 15.42227814274381 12.488174447208616
Li 12.40467707212906 9.163099920247051 12.662160850252189
Li 10.728998335695149 13.68480643490179 14.726970033416572
Li 14.284561129908314 7.214996845097401 12.806312945803946
Li 10.750368624509047 14.444892159270749 9.76326425422319
Li 11.426558229690048 8.03617997446932 14.781361711086006
Li 7.839570750456699 13.611715348229083 10.550929945620876
Li 13.72190414113622 8.904020825444869 10.05762359517314
Li 10.13627495461944 12.72078579460022 11.999042298209396
Li 8.547069590148697 13.747511513030204 7.508843201920211
Li 12.682694397319487 11.08522088658906 7.999812798627066
Li 11.485332214211313 13.385819779751609 6.990496720199422
Li 9.876556660556234 10.579441067092741 13.861048243406803
Li 9.84723223289607 11.806657137700745 9.047829711949358
Li 10.647939478649482 9.967620972321392 10.88586226772812
Li 11.552040341991338 7.030122635563779 11.042047016821307
Li 7.931479742545328 12.977574999938748 13.76736683382478
Li 7.866895970361999 10.815066339173633 11.511125708222195
Li 7.074170525348618 11.331144665630823 8.554214561210959
Li 9.160482159684674 8.133951862838494 12.497770104447637
Li 11.298115888740618 8.653557679990017 8.38323769205221
Li 9.649402075920541 10.727272267398252 6.631751514405491
Li 8.594636154496838 8.832054967671008 9.338352996900936
