36
Energy = -55.21839564 eV
Li 5.963017921328492 11.774977145392453 11.451007927152286
Li 7.67919906654621 11.731667489492247 14.064790296376273
Li 7.267957693779143 8.965223074350947 12.662133935201732
Li 8.99000872357754 14.451480525384707 14.604669983659898
Li 8.32458891769159 13.903077019855006 11.68138372052062
Li 7.456481730254993 9.512279485411117 9.596191868560576
Li 9.964585206643747 11.896133844963416 16.254544642143667
Li 10.096420000014536 9.543091977321776 14.09460833451365
Li 8.64551716088143 11.15854142193009 11.478480856576379
Li 7.769462359940698 12.645733336037999 9.103886646584963
Li 9.968390804915886 8.82391795030464 11.23091335749342
Li 10.439307676458144 12.359517336693814 13.53163786021234
Li 11.056599760229592 15.046920556031266 12.271830491252395
Li 12.053640275640129 14.15974770408887 15.201467112996864
Li 10.244219928004226 14.53401085960809 9.176491567243565
Li 9.994930046491078 10.862400177556239 8.681778679135416
Li 11.114325645546321 12.452668150661555 10.742090862171786
Li 12.74259838353799 11.15028275472543 15.07062048068602
Li 12.492412428248157 12.466691538337974 8.071049738919973
Li 13.970527218645602 15.787992883670178 13.15490855459794
Li 10.349926135341219 7.7854980347738385 8.55061352211299
Li 12.262572894305428 10.31542993527127 12.196827870630953
Li 13.255240786948331 14.602729441904975 10.279826479462306
Li 13.24892147205662 13.112031061427036 12.87509739275024
Li 15.047420370005844 13.350815511513195 14.977376411350097
Li 15.420000691026425 13.384603463402701 8.483504636167233
Li 11.993004884440067 9.70442226705218 6.6355301344972535
Li 12.336246226995069 9.581104594666813 9.431569903624073
Li 12.239066690209484 7.1390592787997775 11.110778047469472
Li 13.17061209001455 8.301677935144259 13.824905208422077
Li 15.79287209892954 13.618624701328761 11.805707343304709
Li 13.502352442253605 7.383438810985577 8.327597742189766
Li 14.06576422300967 11.758588028331541 10.39652501262316
Li 15.03581589302005 10.810826160457072 13.203718353231139
Li 14.769490728228774 10.27722543083315 8.051487296511194
Li 14.672366334726565 8.794277331306525 10.932855719527836
