35
Energy = -54.21375599 eV
Li 8.319882803125543 11.404269519358346 11.91310946387567
Li 10.20633645491911 10.286575809439153 7.41858326568042
Li 15.310446373955061 9.714841681478891 13.133639227694466
Li 14.253075213661772 13.947884605496652 8.520198172664285
Li 11.172820083206132 13.268335029638573 8.116894088809548
Li 9.922395775695993 13.843278197668843 10.819508075448375
Li 10.59401310320934 11.066944924456953 10.032773954953791
Li 11.103800796097834 11.931947704320592 12.756523495343387
Li 8.294379435737111 12.329565360726312 8.895192981959624
Li 9.54510169882337 10.602154399092345 14.720301241354758
Li 7.274719268035003 14.351680022703652 11.099204007280235
Li 10.38253334792651 7.504591142514708 14.54069743048262
Li 14.873799343927692 14.635682475744431 11.627573447502723
Li 16.69843071640463 12.625532413869934 13.400104370686654
Li 15.385854545265907 11.70127712120447 10.701548783632536
Li 13.028519731700941 10.16163882563889 11.475450668754002
Li 7.859928368716275 8.413952784585813 12.970318946376882
Li 13.15830970784528 10.88799859155624 8.59016356573377
Li 9.039079188032636 15.45659718645968 8.75770604571125
Li 9.191365401175078 13.789142967962073 13.688619856763989
Li 12.825520398007813 7.492690004586213 12.464625300927853
Li 12.743775706424 13.007218860311912 10.6129931731526
Li 12.023475160984967 15.684673666844663 9.927334640685636
Li 11.626420385804908 8.320551989473756 9.680488582090346
Li 9.498758442630294 16.368154133759262 11.73188656322966
Li 11.91907820144035 12.749410240719852 15.36247777117263
Li 13.977722795253504 12.336585114586049 13.277581697632405
Li 10.390238029456638 9.109608167598703 12.305690387972826
Li 12.493547397103626 9.881290536727871 14.453547638128825
Li 9.883897502878591 6.510785173878886 11.564773745177455
Li 14.619251918098792 14.491292793666396 14.796252529860011
Li 12.028726910663867 14.748797262106317 12.934542061826509
Li 8.602542832155589 8.998804062699623 9.934151475424093
Li 14.804639766786035 8.530227790540003 10.21096174179156
Li 14.877162943592063 11.540972561467484 15.745892074911723
