37
Energy = -56.35869649 eV
Li 13.368582977038493 8.906858817699582 8.18322233997889
Li 10.424460202358349 9.53260421015417 9.073924381649064
Li 14.681605972831798 11.806229131968117 8.087450960559957
Li 11.671564506145806 6.4648332653853275 9.277792317695047
Li 11.557918428812513 11.942628199635774 7.3871416836840735
Li 14.585997743227153 6.5278774315142 10.075112294832312
Li 15.333859940505512 9.640014694351299 10.383634621697873
Li 8.168537086838121 10.50400581724676 10.850334637867908
Li 12.655268403470252 14.104753494518864 9.323108971902434
Li 12.730001496432466 8.319321402429463 10.992894639503383
Li 14.930262345385229 12.82070985974143 11.079894411391859
Li 9.936993577376569 14.687942113559448 8.099855424892409
Li 8.530670188318116 11.780515323149716 7.695162979446895
Li 12.405136802454983 5.904384303170069 12.208448155065584
Li 9.856090439415686 7.782427307355577 11.678610112936758
Li 14.720618297795728 7.7929697802572155 13.084844999090576
Li 12.875020138337979 11.10069328362405 9.963178440865926
Li 13.702174787769108 10.535226407201252 12.79127270618597
Li 10.146951900759502 12.434946210044071 9.847034765257618
Li 11.875771525018038 17.035457886203854 9.868707491043388
Li 11.882985631937988 8.555134838133345 13.968000422118342
Li 12.181764813014768 12.936123319372474 11.988376329533997
Li 10.83412152656497 10.363324623994457 11.868889820673145
Li 13.966832769294246 10.32679260421835 15.67665732514719
Li 9.004395810582357 10.032216292249634 13.978181435260606
Li 14.021523280034428 13.215508048722082 14.194922741429911
Li 9.362723640303061 12.714585663120488 12.754152075193874
Li 10.430381067064713 15.04702884295511 11.19256092436999
Li 13.373817769027571 15.510806015175147 12.062569146251006
Li 11.307121895635216 14.568728868244092 14.174373957802045
Li 11.5366158755828 11.554600583938353 14.593039224122691
Li 12.318953607205394 13.542881017219036 16.644609463325025
Li 9.29451104839805 13.127049135690456 15.716427583168624
Li 13.377535066445398 16.1488268850077 15.171244206633972
Li 8.68507040095641 15.47094051933928 13.73058417279289
Li 11.186487655203631 17.26877602683872 13.207585293000484
Li 10.443660230742134 16.18477641554457 16.16154207864139
