30
Energy = -44.6350102 eV
Li 7.992520239727446 9.876199386823956 9.388029858489478
Li 10.209720878468573 9.005507507400216 7.69714353781453
Li 10.578354005330922 12.134821906476118 7.509548532978169
Li 8.71132738561859 6.777386572171397 9.44688398858601
Li 8.034609536064037 8.17420210807522 12.140811782504276
Li 8.263783013687181 12.905812566536191 9.766437223191074
Li 10.844626005165441 14.284127784275997 10.147406591390125
Li 8.682167665964727 14.420548297576943 12.742447072241497
Li 10.336118344653231 8.676628858590991 10.554387688923825
Li 12.769346374617522 9.844555825600434 8.979562990032965
Li 11.760555869891892 6.759713568962404 9.10206792045376
Li 10.588272423274837 11.363851067275565 10.063212775844834
Li 8.567213513650975 11.088705240467489 12.127879334567824
Li 10.596886223565992 6.402087083482968 12.038574502013592
Li 11.338532155856347 16.07933648345183 12.443513937754721
Li 9.279622026151362 12.09581520599296 14.958017232750821
Li 13.554423759201953 16.021974741751272 10.291835264679117
Li 13.058134656532664 8.277399718304405 11.421948175921342
Li 10.714207920507654 12.821657081792354 12.65939224752753
Li 13.121365824048691 13.951816399322126 12.049366453245923
Li 13.258272759961775 12.84157636479125 9.475478116709667
Li 12.634746147099998 11.020149877817476 11.934548362526874
Li 10.679951465489227 9.425112952610062 13.307333319271985
Li 11.741901380028509 14.39362385174664 14.795240532779609
Li 14.352692022083087 15.92094520601059 13.443963862164164
Li 14.178775047370863 9.58843726439117 13.899261424116004
Li 12.227899830685413 11.57749765630984 14.843206454456416
Li 15.74107807284951 14.147542641497768 11.288129931416487
Li 15.155908109238526 11.009986114885226 11.202166795801807
Li 14.704158371397723 12.742854266342977 13.89752731212306
