38
Energy = -57.49145733 eV
Li 16.058645475307053 12.785607013348669 13.905412750153687
Li 14.848379509406938 14.652834638097351 11.72812353279297
Li 16.60285645337757 12.304462950511354 10.958022711619677
Li 15.708750021938792 9.867071631501474 12.908652924079297
Li 13.605667785925846 14.257507767885215 14.524883287996987
Li 14.083327388250046 13.037860619095996 9.310425307350062
Li 12.749741469763512 16.510544749819434 12.567774049001779
Li 13.670147134602084 10.905963317810027 14.763975014866299
Li 12.045370951104593 15.032881160355052 9.88737870825515
Li 13.880694325716052 12.006195079913995 12.193286514973602
Li 14.65495765784448 10.252336359321653 9.986816816570117
Li 10.860463946132459 15.52528870990782 14.716500442583692
Li 13.767618836685392 7.599561782802395 14.150798013611807
Li 11.339665243329137 13.01929948534704 7.860699422197975
Li 15.102934345127887 7.5203517732120515 11.21184854192858
Li 9.852991837983735 15.893831764623444 11.660300452754502
Li 12.770629658456109 9.096008244275007 12.133381846276674
Li 11.74288224591101 13.809494995063318 12.397584751028978
Li 11.25141629699465 12.486895432971854 15.127539497018903
Li 11.75508459051285 11.120876053247333 9.976197086661566
Li 9.425565152344207 13.018330370750157 10.477499866329234
Li 13.277855785662718 10.822687323686246 7.314502617341554
Li 11.14439245522386 9.403022794119165 14.94561584546931
Li 8.585008422715083 10.923273409219615 15.098159593446136
Li 9.046969281543152 13.4907731427164 13.489996550871536
Li 10.370324225477539 10.918173641749787 12.619350500772587
Li 8.774187123359088 11.988826165780232 7.542594088282816
Li 8.886189374165191 15.003032005561439 8.718699248005892
Li 12.474766407286184 6.195430109497922 11.378058398189696
Li 7.168405285441905 14.676723645611725 11.434483830588766
Li 10.503549062623888 9.623501656188079 7.813581093212893
Li 10.645026769799555 7.133951469234981 13.440285351674063
Li 7.279244197080488 11.600743698717853 12.25652098076642
Li 12.805265739498921 8.237194819512304 9.130265706229443
Li 6.639662180604704 12.583195190227741 9.43096542891407
Li 8.326879379292105 8.849458762329151 12.846422377621233
Li 8.53429304175518 10.27814541303334 10.00170338425279
Li 10.36014607682996 8.25702300936046 10.687932990912927
