33
Energy = -50.51928112 eV
Li 14.976052967689531 11.689063658932211 8.748542558887646
Li 12.800396140955923 12.355772656534155 6.615342773023085
Li 15.300417527976768 14.051256645758546 11.518937720807905
Li 12.944461045502273 13.838849932226525 9.535089226328319
Li 11.574484138186753 9.563883014227745 11.457075164240251
Li 12.19828869494597 10.894101670963574 8.84917254348193
Li 13.55981631286893 9.389855469487427 7.0341352865937345
Li 13.340305999782903 16.466618462673445 11.354846988355881
Li 13.657256960485432 11.616873284988731 11.403366760499752
Li 14.338572052055065 15.570293118108424 14.1969781768519
Li 10.179380230623527 12.951398622005943 8.373444131053166
Li 10.820071441031171 12.33375633151237 11.076386497558172
Li 14.408407775027207 12.449919811900198 14.204475326472823
Li 14.030704098452851 8.903997119490484 10.156181481441815
Li 10.430392017796299 15.122153315552989 10.85800807750669
Li 12.613773302689902 14.156666280766716 12.618508185315138
Li 11.350757136954355 16.34539914052456 13.72217570734479
Li 11.713618908923422 11.514140086930034 13.711767184894638
Li 12.583509084718592 10.705502887032656 16.165296572086707
Li 8.078072852452957 12.803635683771594 10.853331559370341
Li 13.689077883763682 9.357912660287145 13.371793903576972
Li 10.550757132967341 10.239411370381594 6.736885411309602
Li 9.254883889459565 10.268539555772211 9.677085622493367
Li 11.29999873574281 8.064294135108444 9.014571296081442
Li 10.733535921771308 8.779865174251372 14.24888386243535
Li 11.942726087809453 13.745727930203449 15.505166994069619
Li 12.203937403861131 6.967943834851109 11.877284872481486
Li 9.668382716086922 13.651402182312523 13.443752947539037
Li 9.529132683295883 11.324223315930173 15.571878070392637
Li 9.040772757026135 10.665266368531146 12.732701145247592
Li 6.7220102942367275 9.793462667865269 11.511074040542697
Li 7.660541853894201 8.836809024000505 14.387360016986001
Li 9.150525899052791 7.940515651866111 11.756651304703501
