30
Energy = -45.10613265 eV
Li 12.446804814968715 14.800821290314904 8.51093639418107
Li 11.710771502524493 11.789149902074323 8.393279476133888
Li 10.888011124922803 8.920213629919106 9.381356424814495
Li 13.798602136635443 10.157411466119042 9.987106795357896
Li 13.278311219170655 13.070277013585242 10.621239393120073
Li 9.39765383808114 13.8548210801262 7.792545983953047
Li 14.843126624511237 12.617450426250855 8.353207532344825
Li 9.840026634133967 16.273388680515744 9.481772956987857
Li 15.261889918138413 14.967654897198996 10.292687381997576
Li 12.278570427830985 8.544658298891388 12.163644402693206
Li 12.374780049014225 15.686548989662539 11.43550037248391
Li 8.746433578574676 11.301572542984628 9.618934739196927
Li 9.15113809619287 9.125754019180228 12.022784802948676
Li 10.380787324796017 13.697183358964361 10.345798982608155
Li 11.191975844122744 11.025350022035408 11.143713755819782
Li 13.604452476615343 11.117658636356946 12.799784165686415
Li 8.730283432374659 12.123867266598154 12.540212487651377
Li 15.970600534978098 11.998383230569978 11.28385210709085
Li 7.63165821587756 14.157067715616847 10.311308079303052
Li 11.501877616275895 13.281621560955355 13.023224448812885
Li 14.477941301801405 13.931102446790238 13.1642471723414
Li 10.884467638734463 10.531526607973783 14.026753088275603
Li 15.434782243003104 9.057604450469535 12.3852362843476
Li 13.426631527045453 9.202317004515677 14.929078358781284
Li 8.289295313292323 10.034692320905465 14.89451802230684
Li 12.917907818645066 12.199167140025374 15.418000993747865
Li 9.78824828213416 12.714559218302332 15.424448238725025
Li 15.852653233465146 11.359366232538285 14.381258067927703
Li 10.49403934127218 7.845283812038703 14.62424351446507
Li 10.869074477174813 10.076323324828113 16.712122162203833
