36
Energy = -55.09795608 eV
Li 11.796806549032329 11.307609080781567 16.38077774773788
Li 11.383486482821523 8.132779714441009 15.692230935979504
Li 12.458511424913766 14.57512129046059 15.717342978637754
Li 9.019868647368178 10.257820045153512 15.370961033719198
Li 10.281100170284736 12.897587818856987 14.370574233545439
Li 14.888838088019696 14.879700265600118 13.346714223866128
Li 14.066440089541553 9.6549972750189 14.773399639241912
Li 11.438746381020678 10.08337393384201 13.84094435730885
Li 13.210659731611896 12.48276022563624 13.965097540187994
Li 12.571196604257803 7.648224343916597 12.787308724926849
Li 11.407583082928015 12.183084664114444 11.671843286648523
Li 11.980757619775288 14.881922438932152 12.698013222941167
Li 9.154620000072708 13.95932907838882 11.643518838392236
Li 9.542574201047282 8.012681926689337 13.016184844463414
Li 8.989534230385054 10.944666067037986 12.459589171266833
Li 7.3370889609079475 12.68620097005347 14.045722081404667
Li 15.96093975880013 11.916291226056643 12.865028671898973
Li 13.708347918396672 10.382746515616436 11.936358238457762
Li 14.06644268556325 13.252949699055538 11.129533824070007
Li 14.024975305508345 15.948441658108301 10.494788886248248
Li 11.097596539370022 9.41749988637685 10.966690590006442
Li 7.018005483554886 12.178245291540627 10.914006577644297
Li 10.733222126015841 6.819022480248898 10.205674889149673
Li 9.609179956105752 11.585347099655047 9.369677016172758
Li 11.546313057045426 14.170463433212115 9.667141392177463
Li 16.57164529798756 14.142387549932184 10.625944364400599
Li 8.420073172618997 9.04970977567359 9.953783453345856
Li 13.54014776539086 8.42878483696419 9.742665181425807
Li 15.670686249504865 11.18554252145368 9.798466126617019
Li 6.824503288938556 11.157946804394276 8.240703181100054
Li 8.54526939664756 13.764578108992733 8.281654374258364
Li 12.753504452985952 11.27586328446016 9.241831425525808
Li 14.382547293892149 13.687411038976245 8.365023880079928
Li 11.007677181504285 9.158858863120544 8.130200973316764
Li 11.447773464648053 12.667266028541214 7.1571299683444725
Li 9.140185259137827 10.921671143178578 6.6313667543724515
