38
Energy = -58.0393439 eV
Li 10.894491660110743 9.85090003195141 7.419935977069663
Li 7.765397765240792 11.548804381627733 7.908367134435685
Li 8.305435694036044 8.40525284560647 8.286066112718123
Li 13.108748965953426 14.7352412791888 7.414921540408486
Li 13.651243817489858 11.771966051452171 7.815326948331831
Li 10.718794598884193 12.74249976970602 7.859373371694668
Li 15.156164750187674 13.831812947901968 9.752386009669463
Li 6.399898071078655 9.85945003793212 10.16731520382857
Li 13.629487031464532 8.730362562733877 8.451509878132866
Li 11.045480537408933 8.045288449521589 9.888698122887854
Li 9.21140451946072 10.488068319509308 9.921230470263318
Li 10.423978184655713 15.727386823330013 8.799509484261826
Li 9.301665179801935 13.378130039388473 10.254920301701373
Li 12.343115143210156 13.87252112795018 9.90637988903448
Li 15.340824579776323 10.719853430854808 10.019006864235168
Li 13.255657142391572 16.515403507620064 9.945426869339725
Li 12.052929553537 10.898584928933214 9.873249460485324
Li 6.593350676806744 12.835520127561978 10.638929304941176
Li 8.531809727011986 8.065917460655914 11.401627884918524
Li 13.389653804066311 9.087552200633901 11.570240121717058
Li 10.92681355012114 15.451982017072547 11.809702634592169
Li 13.742502491186809 12.208301907576093 11.870034987779711
Li 10.911721573693391 12.360071645235202 12.131194664841821
Li 15.694799369980128 10.531309132879894 13.211060876509887
Li 13.832139672929344 14.908110406913135 12.430549082855498
Li 8.590955495409595 13.92494763925323 13.146281205919385
Li 10.69794221639842 9.646963668672614 12.556486608849976
Li 11.74029994955783 13.817949034436815 14.314142968411103
Li 8.048090894637633 11.043630011403224 12.452267946896459
Li 13.989176973908789 8.057676038402102 14.129376375882263
Li 12.882566785556723 10.84279120958854 14.135452371248121
Li 14.629467590526119 12.936658611198327 14.82895022602748
Li 11.244450776112151 7.025192048277023 12.919104952724803
Li 9.892821132778597 11.49315108411301 14.812533809777156
Li 14.619169444843285 10.141384697939593 16.19288750667391
Li 8.643651913651993 8.681548082312144 14.326641860179265
Li 11.487221442830538 8.953119533282527 15.575231061219103
Li 12.209286047976544 11.868389084409136 16.744326480167683
