35
Energy = -53.42353247 eV
Li 10.236934665974555 8.780015086579159 11.570241589583858
Li 9.186868101092399 10.798252379506815 9.610768917259639
Li 11.906055679656308 12.43023978208618 16.041317857073153
Li 7.362551689820069 8.884694604047642 10.290238646415876
Li 6.592451287594271 12.038728687739898 10.30935114626116
Li 8.652448056395992 12.036410395185477 15.542283878003552
Li 8.304296696435044 11.046289999342251 12.530061468415443
Li 12.066106850569296 9.91545588267459 9.372867929464329
Li 7.355367258623941 13.860920031882126 13.173953934357424
Li 8.313304034663371 12.727354313549894 7.798664944945544
Li 15.181812825160888 7.883020707204802 12.676205780477742
Li 10.684026219592685 10.494680166790653 6.98849184946528
Li 9.063324260207821 13.636372435837922 10.76241659610656
Li 13.038197057136887 12.30725531882822 13.50651086176878
Li 11.253314107926167 12.828869442198787 8.881518373024234
Li 10.152890423360843 13.225099660058866 13.615041639301177
Li 10.868156938850058 10.300201307673426 14.174372286938834
Li 12.813910739329476 16.957686805703375 11.875302398804553
Li 10.102818033377051 7.969686163026882 8.709065654620664
Li 9.828598083097939 16.023523636482466 12.734950108653763
Li 11.873493121677692 14.35061556107385 11.609695852890756
Li 13.655856203896866 11.461940688991984 7.6340856609101095
Li 13.49368781379605 14.897239396132232 9.429187908378335
Li 13.017708280333501 8.344070261125417 7.409927098623614
Li 11.120618590676997 11.548359227274444 11.562689540107018
Li 14.906071268738941 13.052305515175812 15.300794127549732
Li 14.64082285687397 14.439969407603103 12.40535720863329
Li 13.891512345983855 9.942044408955901 14.954466570478617
Li 12.249456108983686 7.44202294227953 13.569850213957542
Li 13.673426002769462 12.158707058511894 10.559771614786047
Li 12.454939582522218 15.075186710306104 14.35441606278478
Li 12.769375677400234 7.286831240164571 10.501951549000182
Li 14.889122862288309 9.425812306134763 9.869902894767959
Li 15.566792259024854 11.138652017995497 12.696804955948902
Li 13.119412055750173 9.611196165843692 12.165187767665094
