30
Energy = -44.70214424 eV
Li 13.464427453273428 11.018933800601369 6.799493570124476
Li 12.039466336267912 13.66757608554199 7.93006994189668
Li 11.983030172018168 10.772036251013928 9.098569964741968
Li 11.9084696424971 8.39466221887076 7.757308111854876
Li 9.524081402005626 12.286412890400392 9.120878001742264
Li 14.491842978872729 9.405516687685624 9.330670282040723
Li 14.3842584322001 12.510866532637202 9.348001415493025
Li 13.36481337119287 15.485189504862952 10.173861396727682
Li 10.48420348527474 10.899916557177423 11.67452394504208
Li 10.30628804203377 15.451278396994583 9.974787778501053
Li 11.903591261754059 13.238102085060978 10.746829145674106
Li 9.454844682254668 9.191848410327939 9.650120611817048
Li 13.420131894647835 10.901354588608175 11.729722610942353
Li 7.653367211533754 11.062801791638954 11.411006979352324
Li 16.13663927831832 11.204976430791982 11.509833202946307
Li 8.51080929723475 15.130779180882548 14.022806713717582
Li 14.246762881644024 13.61657753196744 12.431341847809176
Li 14.770847382644321 8.663965623285526 12.499324388057957
Li 9.261698348238097 8.939971918510858 13.098895401262007
Li 9.291518881553193 13.525085465463928 11.88356179100758
Li 12.009335116639262 8.407634628733547 10.963002995150696
Li 11.487338986915228 15.156141803339015 13.024077071767206
Li 11.788515450854348 12.383435193731048 13.919091722003225
Li 14.677557842085912 11.333295696330339 14.296629260242241
Li 12.163345207302058 9.479414764159479 14.00831808505971
Li 8.772364966310432 11.992496750488176 14.10916179919137
Li 10.102553859385464 10.324972192026404 15.943605025415284
Li 10.464326334488874 13.740560140088347 15.901431477470247
Li 13.485310373391394 14.310744153811326 15.289828952894801
Li 12.622473132600055 11.677666430400024 16.52746021548565
