36
Energy = -55.45814489 eV
Li 16.61955945631182 11.993773211599636 10.934858110000343
Li 14.226246450342995 14.109862496203771 11.242728643981165
Li 15.718489006389557 9.939993150292654 8.813471043313603
Li 15.405407261659661 9.094966432553427 11.952785488353511
Li 14.915563701973882 13.02538314026989 8.396347878593515
Li 14.6346073629975 11.707101790075864 13.372407798518736
Li 12.09676057955372 12.195730351221531 12.124155012224433
Li 13.964266005395556 8.942593035104249 14.887504598510406
Li 12.863568173664714 14.266810475146787 14.015417442926626
Li 13.004815820607265 15.897809741860131 9.140167109946939
Li 14.038023022990682 11.209408464129341 10.441234005143645
Li 13.16509211770238 6.779353030988407 12.770882982699085
Li 12.084987145322645 13.116241984772547 9.175202063358151
Li 11.36238884683538 14.985445901021372 11.403387421282014
Li 11.953788021285957 11.291682312083964 14.848519988776108
Li 13.159630798825976 8.265497766308213 9.918314094238392
Li 12.816734446841108 10.610465419083326 7.7244618470712085
Li 10.829169482855704 8.380904661660184 14.529754030164819
Li 12.655147601977422 9.469083267090237 12.55759661734597
Li 13.264257584543728 16.865381527382098 12.281745047238871
Li 10.48678947011842 8.480919084727594 8.234361808556317
Li 9.871120715800819 14.921547685065349 8.822405214271793
Li 11.219069191494723 10.366163591391935 10.082204049114077
Li 10.402221386844257 7.816397486011299 11.439637645635907
Li 8.956391600817796 11.05575065276443 15.307810600184375
Li 9.873840724052817 10.41842245425824 12.692325932668648
Li 9.567519712148806 12.657959519678394 10.69533060402876
Li 10.686958040227015 13.710076907792843 16.256900912903934
Li 7.935802286773085 14.194944055487293 14.92492666455812
Li 10.439753471910675 16.045847152712387 14.070241868599329
Li 8.358257896844405 9.856035390764353 10.30922305980947
Li 8.375357075552623 14.988393097799875 11.878072576715267
Li 9.841881156198179 11.648336405784162 7.91232287746175
Li 7.808861520892035 8.718023106537284 13.234826960115438
Li 10.026199825337791 13.265210315986941 13.589119137486874
Li 7.458140267447154 11.8695792280812 12.657181638560827
