35
Energy = -52.82456109 eV
Li 6.698078257251196 11.709744373510294 15.696063628845712
Li 6.389171578403412 11.167991010199003 12.623921725924216
Li 8.392159619579227 13.11186597159573 13.76221727596563
Li 9.82332182309825 12.145687446067836 16.280116087160582
Li 7.760659351920593 13.682974815344737 10.831095473150844
Li 8.788348939828515 10.07341905806981 14.413962759463875
Li 9.051008935659722 11.088190392075509 11.747019580426828
Li 12.513939369215752 13.0137163700796 8.401067978263807
Li 9.843081366509892 8.909334148300527 10.058738100760651
Li 9.146040760090777 15.965757170003606 12.400790904082069
Li 11.03112777422937 14.547107506327157 14.552612194689072
Li 12.129218435109328 10.020209687718042 8.242665320123715
Li 9.661984804380197 12.065339532995786 9.021375801214225
Li 10.504465327473929 13.62733421853867 11.758764395891335
Li 11.268699202009042 11.810288290186119 13.860094862099782
Li 11.040607750721138 8.876073299178968 12.821431095346192
Li 10.435901946326357 15.184715197686932 9.542307683225424
Li 12.828192133311704 12.457132459871094 16.235174267292226
Li 12.293212194291364 15.931777111035572 12.083003689918037
Li 13.319892476427164 13.485896117912102 11.031941637074722
Li 13.539688598387189 15.727165302663385 9.252761198508392
Li 11.655962180979804 11.014893852878407 10.796064365980907
Li 13.590388981375053 10.483929328638943 12.796559644830444
Li 13.80970744743204 13.448990979926089 13.71038510767768
Li 14.80867611481975 11.297920420230712 7.217925743892748
Li 13.860076837331526 7.888450738500376 13.883720371931279
Li 15.333872101230806 15.264854098910881 11.808751816468103
Li 11.995174117092834 9.693379514362196 15.59342772009435
Li 13.174227806680681 8.351955825505652 10.73714096024634
Li 15.591090230177729 13.417309183446147 9.223385044651351
Li 14.389455810003735 10.895235042880374 9.949587069044131
Li 15.16994994080012 10.603135255057847 14.911944343381096
Li 15.978996464978863 12.168704753912381 12.084516952483138
Li 15.932524470209158 9.160397794296772 12.027401314179757
Li 17.03259240405353 10.591918317748073 9.32430466619474
