32
Energy = -47.77125246 eV
Li 15.02477671604297 16.696273044674246 16.31246418205483
Li 14.153906921955958 14.293288197202132 15.349885478470947
Li 11.853148787097659 15.519842369945575 17.031108071406617
Li 17.1259869658625 14.209313859084121 15.361308216289316
Li 12.296577656604828 12.230945730139204 16.894388023423993
Li 15.197151307698963 11.594907532612407 15.56758472891997
Li 12.654126494912694 16.471133443956937 14.100190919777472
Li 12.731517405517728 11.5977710896428 14.16729684484517
Li 11.37288610406883 13.992970201406544 14.803230296534634
Li 15.79277984348739 13.095047445847705 13.080043154305558
Li 13.222894731303178 9.196705482664315 15.254590891299404
Li 9.477702853614243 15.853481169013707 14.781202683094252
Li 17.682160387557637 11.260237846550448 13.975861548722266
Li 9.109979413923597 13.045161111553211 15.96736751732793
Li 15.614139445496235 15.954468499368867 13.405757922227856
Li 10.406658534550758 10.366271619588725 15.528478167824805
Li 7.997502933859314 10.524351705300719 13.539859938015846
Li 7.861247567516353 13.621008498257504 13.158610329759705
Li 10.554381615366882 14.672935533387582 12.022332270381606
Li 13.165304658422873 13.83525270883396 12.574110790517416
Li 13.866839025682346 15.868636240025515 11.025202957880353
Li 17.286328975198522 11.70779411547082 10.982333197151641
Li 16.77637396744615 14.721711090550597 10.686779412149887
Li 14.802574769335063 10.496909209100904 12.541145900721208
Li 10.934020142099163 9.46448072979603 12.788014024706683
Li 10.106716936194324 12.137684873119067 13.298768808174827
Li 9.194955847052134 11.853529332328893 10.768724056354852
Li 16.572191485397493 12.657675220408594 8.145091983052662
Li 12.145752017093544 11.622561276584662 11.256786996193151
Li 12.009766289504 13.860465619951498 9.445458141631079
Li 14.835003276439421 15.054272939317835 8.336972720913105
Li 14.70721405697434 12.953455469983895 10.285931137595009
