36
Energy = -55.01495682 eV
Li 11.0148325186683 10.180808776931002 15.270765370800293
Li 11.890296687266824 13.254878934184648 16.18548707630196
Li 13.56674531457873 8.765579701316693 13.947958095235212
Li 12.942816592846206 16.241636009588486 15.871173466200384
Li 13.411693039599117 11.65463828551414 14.159557764779292
Li 11.567295022010425 10.158448021482917 12.35812967392909
Li 10.656291763315426 12.559601883224532 13.625697773662873
Li 14.994863860725381 13.817150007240027 15.503275060757067
Li 16.13854264383499 10.77607194274933 13.968136558727506
Li 10.15994719015483 15.227695545028222 14.577505380717643
Li 13.609544621082591 6.008075174903724 12.970033077735996
Li 8.741008151003975 10.333707582116284 13.140465386920624
Li 8.741988242236912 12.453949484617638 15.587474890407492
Li 15.471294070395759 13.324070629214791 12.461969305788783
Li 14.462863693133837 10.57738110618538 11.575615693711786
Li 15.798134081381127 8.191082444169178 11.991583723959328
Li 12.943081492217836 14.524900759263266 13.73776496561912
Li 12.892629881185263 8.066299718144124 10.988682184490331
Li 15.072444438700542 16.278173720866686 13.51199297475617
Li 10.742296934599873 7.666182641166308 13.205100384338067
Li 12.674503053062987 12.698059016595316 11.506546469983979
Li 10.763221964172276 14.685483027777677 11.643664907998497
Li 9.852748043624128 11.917562726830974 10.757662707946432
Li 12.00954311982733 17.043725484115228 12.812877129660212
Li 8.153292985889609 13.53528707828045 12.664762389998536
Li 15.1289817732901 9.384911005491855 9.138829703892279
Li 13.669085734486925 15.257797188356502 10.845376324956028
Li 17.10916489094568 11.018243370327552 10.961274059313585
Li 12.206497003336773 10.611555001060797 9.43357522871267
Li 8.908759270033492 16.61825718616716 11.939303307297807
Li 11.067065321744789 16.618807804965723 9.739644052781905
Li 9.807491467797563 9.011583033893269 10.363177270570771
Li 14.766055489910771 12.533052281241476 9.442153837895775
Li 8.793268809071227 14.371463364361352 9.572376152518059
Li 11.639796994527284 13.5796344082089 8.927490088799853
Li 9.483188952366522 11.416046971023162 8.048830577110156
