35
Energy = -53.1936202 eV
Li 15.141104431848108 9.4034825096488 14.710525354241257
Li 14.201278306785316 12.64972313720255 14.71666854033094
Li 12.707726977646045 15.505738350229038 15.332459095260718
Li 15.845172433715469 11.193293171492634 12.307480683906126
Li 15.60464429024494 7.478398327566169 12.219078126123394
Li 14.28746179833443 14.750494055887927 12.377835648035713
Li 9.471536553553289 14.838437493276036 14.780073835840028
Li 12.648020839564266 7.458186911555695 13.846642966737047
Li 12.333421346895626 10.41561322281515 14.638258451542482
Li 11.684610660924603 16.511059835723586 12.503429254294014
Li 11.284006049466747 12.749652366532423 16.16099782034677
Li 13.81724211946658 9.400968055185443 12.31301366876219
Li 9.673421842565762 9.240651541263803 14.957744864082738
Li 12.998077535985646 11.955839024381827 12.270392251357304
Li 11.723488665086528 13.901961433561343 13.45318795116029
Li 15.03414136791574 9.436376529219345 9.701860317360996
Li 14.596490453943796 12.75343976259804 9.963291214148713
Li 12.116225831473875 14.022207139277294 10.436707060155065
Li 9.913178601713449 11.901153849245368 13.819793026343108
Li 10.294964753617577 12.040737056667899 11.154668585271107
Li 13.060624576963269 14.307789685521948 7.717115957217267
Li 13.82508347993534 11.334780187642364 7.431797565692177
Li 12.522886015289544 10.597832485702252 9.891324397512138
Li 12.596284971374358 7.624861651764298 10.562594213782077
Li 10.945185589293983 9.438349605945174 12.296821924233214
Li 8.084209052385896 11.92605146555308 15.733244242901709
Li 13.243604531698537 16.41811064741934 9.818647451699851
Li 12.100249653783232 8.941297174551702 7.733553664249801
Li 7.500575423524056 13.13661135091872 12.939294359715564
Li 9.532196789432804 14.693031216364174 11.65953059777574
Li 10.273047159044033 15.223040541484142 8.804714812833515
Li 8.17286683970228 12.727855387627091 9.716539168833933
Li 10.924523552800238 12.198047970839786 8.192480681531556
Li 8.075130840742574 10.300193226027693 12.371622592390002
Li 9.742745164594428 9.662896200013444 9.606215860848026
