33
Energy = -50.06400809 eV
Li 11.564627258690777 15.87320109522416 11.796102872744127
Li 12.794717162111233 14.476328540229053 14.496112133865138
Li 12.526120339627369 14.211668066278751 9.39446054153839
Li 9.820021093364604 14.238103189155273 13.699951134906462
Li 14.407201002883156 14.598455953423532 11.909502706058333
Li 9.691503082388968 13.764823439094895 10.496689816991934
Li 12.066299681357302 13.153541596447763 12.130678282158573
Li 7.231655624972045 12.141992472259698 9.624963916672916
Li 7.135680987317517 13.64261840478798 12.327042456872977
Li 10.1444524099687 12.607966422938512 7.821737290849928
Li 11.23503690805526 11.787798094732082 14.754758828737186
Li 14.578727725116494 11.978177976682431 10.292823893877111
Li 8.047353549828385 12.053218502365128 14.92194458842676
Li 11.525417275217707 10.210216385618695 12.27801878419077
Li 11.944600871300887 11.368943837511098 9.721175425166802
Li 14.05468299044119 11.7573906237929 13.460569577444081
Li 13.326330232438902 12.006284042459573 7.304502616608312
Li 9.506548683808411 9.387513209745276 14.240822875777607
Li 6.983601475029101 10.48004423652708 12.333420893697166
Li 9.305196792805095 11.787894886488392 12.424360877682117
Li 14.139647393901054 9.296145256473235 11.602536925835397
Li 8.185354316646011 10.310506897145123 7.187296071522048
Li 11.754362873608239 8.362407562840298 10.018590006195998
Li 9.329910237808999 10.404706161084377 9.773122548996623
Li 14.027634463276168 9.297876891530706 8.587422894684071
Li 11.940938900289702 7.484141408827568 12.855241165523715
Li 9.188416653329492 8.258281250424483 11.555936825444125
Li 11.233810675071021 9.788547816405345 7.370645907604211
Li 6.781520668457726 9.001913778669945 9.637833492505804
Li 9.338329381005959 7.760317553522458 8.471982146221382
Li 13.802087387008502 6.531867551231573 10.334692074577674
Li 12.22679534316306 6.8806769323540955 7.665440519321631
Li 10.816219906859134 5.821704940710759 10.386682793377663
