31
Energy = -47.20693757 eV
Li 14.99646482570355 10.844350901352863 14.830736213709278
Li 13.155892361606991 13.550591716775637 14.536673663236865
Li 12.267080608912547 10.906269591958461 16.255300236563468
Li 10.26781372405799 12.493394431276533 14.350316591174286
Li 14.615811072821044 9.20837923163658 12.139581107991381
Li 10.778050269834365 15.470022306613195 13.357921929458213
Li 10.156486931852497 10.879705642278362 11.94875156085392
Li 12.628177403529117 10.763583788106299 13.531025822635495
Li 14.67379995711918 12.467310246126734 12.092828757865178
Li 10.185096326502313 9.307505793525605 14.398241049639493
Li 13.562279798142871 15.464147339677224 11.915747472997428
Li 11.725232295933324 8.25183312735986 11.964860009306529
Li 13.165989067890822 8.325187622578229 14.774944440930975
Li 11.881861331678309 13.29636290804244 12.017737500282081
Li 7.71560258872285 10.992238213503562 13.20519181262164
Li 10.382484430055753 6.650677574756459 9.584206075639052
Li 13.067421299601783 8.247595280746031 9.2349904100089
Li 8.686636487213281 8.402662446229476 11.570580343010976
Li 12.728574603796055 10.833579854510186 10.603964972296332
Li 8.906674215456574 13.566399523713265 11.731890504001159
Li 10.880686918699602 15.331585483388462 10.129442873906637
Li 10.441398675081974 9.42824880175293 9.40429427291151
Li 8.100257082816361 8.388846853854247 8.409204703516501
Li 10.548744553717407 12.47401703212931 9.464767073923865
Li 7.98955269749197 11.115680550413256 10.03306249246047
Li 10.833452590805948 8.300148362140042 6.982152113591301
Li 12.358537706719371 11.027813909530032 7.697317081433782
Li 13.29475358468329 13.562396812172901 9.431991297675431
Li 8.344660506367067 13.972465331259398 8.680128270248439
Li 9.322944139713858 11.202260855670795 7.248362411998311
Li 11.120406096587535 13.942884619767794 7.221971685540626
