34
Energy = -51.73026326 eV
Li 9.32508339574078 11.728179492951272 7.6872904476133455
Li 7.465806126849202 9.578692131786807 9.033817736643543
Li 6.890764123286722 12.500220248208354 9.82338576358679
Li 11.877241120280315 12.730518827187051 8.997464817329927
Li 14.718652749142924 11.176311388920116 9.058682445127092
Li 11.148788688085313 13.078415045860611 11.816884128582698
Li 10.498340007736997 8.956524463629716 8.983570115052224
Li 14.630555429334043 14.173085586997242 8.64960370768599
Li 7.159959010749554 10.479804358435194 12.211586944624083
Li 12.412400075997207 10.380336549939141 7.441502408446869
Li 8.899568471155975 8.380232488996215 11.461585128899907
Li 9.32203798528424 11.22884428001845 10.363541239551042
Li 12.331264304966284 15.410200628134389 10.458769527577575
Li 9.383639336695879 14.221210455340493 9.86671064321767
Li 8.380615012641838 13.06199344550982 12.59917114618156
Li 16.707804682822122 12.79791205631167 10.661910376090212
Li 13.993939742548143 13.05266539239621 11.112271179052081
Li 9.865064735294279 8.110215675831592 14.347459831146367
Li 13.725337653014583 8.37856502512837 9.472828679513768
Li 8.497196662352481 10.915365987973358 14.99420389452335
Li 15.280680899017696 15.488103021403633 11.430154539107043
Li 11.548358296271559 7.5603764100281605 11.423242479125435
Li 10.074453833216792 15.620001416211503 12.708055737655789
Li 12.295874191640996 10.453060380847518 10.776236361795034
Li 12.94226047583526 14.78114607113291 13.40874609611386
Li 12.988599340725294 11.79328866473059 13.591431772322101
Li 10.571910557934181 13.219711156475423 14.692718831937622
Li 10.302985904995554 10.441568478123308 12.959935664118984
Li 15.039246096520955 10.34245056611847 11.984336890786285
Li 12.842204911567034 8.901635158312905 13.546360160737912
Li 15.489237527035872 13.087850618634034 13.596780966496102
Li 13.360890518184123 13.189925856169069 16.029187787291203
Li 11.572909076702999 10.53699131735443 15.760507196594734
Li 14.79164247709159 10.519270067448332 15.271323433612165
