35
Energy = -54.2160588 eV
Li 15.222169336700748 10.62979028495866 11.335838339461661
Li 15.988098893200739 13.091612253359493 13.286670076860693
Li 13.279163930804229 8.469581553057692 9.807527711819818
Li 13.840898787168994 11.528756340087735 8.44118816214931
Li 14.055411147149536 13.475111911648362 10.789791951214115
Li 13.540706923859325 11.888476499987528 13.408065507798202
Li 13.169797015806783 8.86606215346082 12.835216998187445
Li 13.302670481270042 14.840538119811468 13.481183540578378
Li 11.467718505474467 13.174162012861162 9.096951130540935
Li 15.454771614289772 10.283934440101907 14.545475407943037
Li 13.398942310204411 14.692745410339581 7.904593454003046
Li 11.868549126844048 15.716129176916787 10.501586193569596
Li 11.032537874523134 10.151293026237813 8.369064171048937
Li 14.224370529997698 12.857306291189643 15.86914166951472
Li 11.547499542197992 12.724334247816103 6.4393970007089605
Li 12.437090793376539 10.971347775653863 10.830799467121237
Li 10.37496622719072 7.962995259358563 13.932874531028036
Li 12.396946041975916 10.198468501234874 15.537150436592087
Li 10.788522243663715 10.693229066444522 13.216707503246619
Li 8.681510777825062 6.73390990606879 11.488950214973103
Li 10.615372485490482 8.657662491694753 11.097003667898042
Li 11.813546312260867 6.24808154899937 11.64179461138071
Li 10.477624159692116 7.0132825899903395 8.962478080318165
Li 10.292131539874108 15.26967391967033 7.732446876896474
Li 11.309373171545149 13.379496699741367 12.028052049731958
Li 9.581998180588453 11.431621496753891 10.611290907466618
Li 8.837665191210657 12.395569409860002 8.024942980148428
Li 11.221675196183435 13.02652164168261 14.931403233559866
Li 9.18232187826063 10.480054162900473 15.411345960871747
Li 8.22415648402003 9.192149976974694 9.4353016667336
Li 10.15869261318507 15.6009548122024 13.139746508152452
Li 9.029974156902052 14.353838653691698 10.437584272690279
Li 8.140074032969746 9.65112624855388 12.509364998595483
Li 6.873680671366052 11.915825154624196 10.49189049370038
Li 8.619752036842232 12.72384543709113 13.091299585774623
