34
Energy = -52.25449517 eV
Li 16.24399548081737 10.354813354178429 13.976898252779188
Li 14.62819166078924 10.109442081525076 11.21983600296987
Li 13.729168787200331 8.386839320393014 13.693370829172874
Li 12.764450279640352 7.761413812024993 10.487772600894138
Li 11.493137921887069 8.520662497845429 7.5296888292820014
Li 14.437941408918931 9.227088258260075 8.158956690588274
Li 15.298694560249508 12.909162458341228 15.394721793661677
Li 15.474257582506395 12.88220875973333 12.148509490464148
Li 14.497209847510002 12.31144349870546 9.01250620299258
Li 11.802506456829507 9.859764208033043 12.17930114659653
Li 12.770661952671201 12.48154772560137 11.307371521500377
Li 14.176110351947628 10.160605004363838 16.341510543405395
Li 12.239599506584073 10.456879155595876 9.27671626868035
Li 9.814477194320295 8.892847973841901 10.21349719851694
Li 12.16940555089463 12.682281196154293 16.03632586104839
Li 13.686779197999753 11.32777062462464 13.901903148130655
Li 12.565550749000002 11.306820082967635 6.684908071337168
Li 11.550016808145216 13.45265984178867 8.763911779141274
Li 10.022799768251996 11.74029556584613 10.731428220298694
Li 13.460893886651503 15.063840634249779 10.381838607352728
Li 13.092663465668926 14.319542084106152 13.539780082680835
Li 10.817188749146862 7.459145927256231 13.050672445480036
Li 11.312964526409157 9.857960435846518 15.068274171668996
Li 10.898077123709314 12.354818996553986 13.508269113827392
Li 9.058762028108132 12.128293505090548 15.531813536679083
Li 9.647889784574422 11.13909298251071 8.002463818723104
Li 7.404523927857009 11.123685379368526 10.293864355979489
Li 10.707113468589847 14.586348773844904 11.508887093187353
Li 8.95449785530259 10.178541140175039 12.989421779699494
Li 10.02406661448118 14.914382416265315 14.396406471658908
Li 8.600937277072157 13.980897417160026 9.583442782711552
Li 8.22979680611428 13.236875964100268 12.582175130630494
Li 10.563074862642026 16.332551516897016 9.353890622517383
Li 8.426715875151453 16.231615191026865 11.781681574265242
