31
Energy = -46.25365134 eV
Li 11.114476372225713 14.488258321791385 12.002607132087746
Li 12.121435748268746 14.660675662010965 7.496156306680844
Li 11.640271462312404 13.428621215378604 14.579883616483594
Li 15.289750382479557 10.724705419704689 10.754185181746864
Li 12.13314228097677 11.430760905319405 7.4173818553904916
Li 10.004918488993745 15.761860394782097 9.809296740418839
Li 10.79671179497859 11.73526182569146 12.324163951673127
Li 14.258477950272068 13.021664912676979 8.969868597243199
Li 15.88700622019835 14.057313696885634 11.381923010132935
Li 8.774119545463007 13.096345902465687 10.609868624268458
Li 9.42751385975185 13.300810744422918 7.5832300752519615
Li 13.216820992167499 15.601651405058448 10.341232499081263
Li 12.442618470946817 10.558792444397671 10.433089492602198
Li 9.85945336963451 10.527399953810566 9.153513031815745
Li 10.701586365415377 16.62525466842997 13.491464061733124
Li 12.624041917508771 8.436054662662423 8.665917598203194
Li 11.344546976917853 13.146222729523105 9.541777742086952
Li 13.593633870159001 15.340553350918587 13.299771925646724
Li 13.542045065816097 8.282003889791246 11.678288148085562
Li 10.552869732713617 8.275192300879487 10.991049908956793
Li 8.86409744395639 13.81446399266831 13.53920724574059
Li 13.723453635735753 11.005417633145468 13.385367469475264
Li 9.481205624674057 10.879736933577538 14.811243493104836
Li 11.448773263990715 9.217180411440864 13.495217977143543
Li 13.412432919276268 13.007661516314412 11.586799787482205
Li 12.261166472874752 10.717909787459249 15.909043980869681
Li 8.45520866869073 10.388000932702328 11.942924245385045
Li 11.624181693780587 6.421087519298017 13.205641590738434
Li 10.839066033903505 8.062617259002726 15.867006886104488
Li 13.782011558435572 8.252223368799807 14.737862920557205
Li 8.909009216600367 7.92854471432574 13.543521398058983
