37
Energy = -57.10912438 eV
Li 12.471477145640193 7.796779408083923 13.707892095147429
Li 14.04413911051738 9.82134503536116 12.070274521644327
Li 11.713736609931736 10.638072149795477 13.763632158163912
Li 13.323870105590743 7.263540594856059 10.660708598371672
Li 9.393088240207838 8.695187114365016 13.75778395559415
Li 10.381743289962143 6.35983660732364 11.700145243332308
Li 14.287548881206158 10.284533811925755 14.997254859890734
Li 16.463019849604294 11.162803553145658 12.666079115656881
Li 11.171934409955666 8.9464951749027 11.421792627857208
Li 12.941568963136561 9.91427951911879 9.283444617095991
Li 11.92327580769846 11.768487847052505 11.321050574287899
Li 9.198769479256624 11.673081689258279 15.052289262998546
Li 10.668770502117903 7.869036553200093 8.880984912536523
Li 8.259573068757419 8.743980565352865 10.887993024646661
Li 11.376125566946326 9.560403724876618 16.164722042560463
Li 13.912724447490742 12.729771465376489 13.343706235870373
Li 12.122615584783022 12.702834963220619 15.831347646069576
Li 15.829683974632434 9.524272490142009 9.821852470077923
Li 9.257653735144876 11.16232432405385 12.214576623108476
Li 9.97255931603204 10.724968080321219 9.401125226478168
Li 6.775649008527767 10.546471043547934 13.195399241533577
Li 11.400218765675392 10.69494405108351 6.856256364611091
Li 9.708474982221716 14.853933535297273 15.421908502824992
Li 10.874179194504421 13.46251775545331 13.38540048323422
Li 14.669649363990404 12.23450807250061 10.407541879474904
Li 14.402082355589169 11.724220423197536 7.423750849494717
Li 12.608421078869675 15.416872894736743 14.325899458979189
Li 12.098318016027694 12.792107843404535 8.766281133038179
Li 7.30640318350583 11.815285843656326 10.291094769353583
Li 7.928983298581974 13.60033172389409 13.009673949045991
Li 9.35761199491207 13.032560742534697 7.725866516506765
Li 12.659863273541134 14.547143925387319 11.265712502775793
Li 9.76398496926485 13.571144114198342 10.603628129887209
Li 10.119243421821826 15.944151924009873 12.398777214681944
Li 12.146452194657467 13.766910301672581 6.296651414319859
Li 14.135940256264899 14.670621498889863 8.524628288337125
Li 11.096712574263345 15.503301886074517 8.842004464894194
