30
Energy = -45.08318662 eV
Li 12.360184088074126 10.373466786097213 15.988337398534247
Li 14.508530679902272 9.419072623876087 14.14671391274028
Li 11.853952577506387 7.600824985981719 14.367640831354167
Li 13.339605467767573 12.526473803682073 14.120431836036987
Li 9.533041276486419 9.993329579965346 15.530449972189558
Li 10.238496830557077 12.383901073797718 14.111741241189971
Li 13.523908252052683 8.131136047357211 11.539628707199835
Li 14.42462159991112 11.169037947204032 11.664701684614542
Li 11.870422727041847 10.036899363691349 13.238027261155217
Li 10.59299968759782 7.778122240632618 11.010841620567714
Li 14.129454054923666 14.30202051678758 11.633523388321787
Li 11.865113749555102 12.68916511021574 11.641516037989435
Li 13.472365635538539 12.715472163751421 9.088384045632145
Li 7.530164281200844 11.260325605029106 13.065026549323353
Li 14.625534487592963 9.783712513713928 8.9353380178694
Li 11.516615117380987 15.0357857950413 9.958849735254786
Li 11.463792713856945 15.016673114932377 13.107034110301006
Li 12.144430549974564 10.171985816908744 10.071019468221523
Li 9.07910397343863 8.52979649138159 13.251567564149811
Li 10.424893451111046 12.459487466169561 9.053613553523865
Li 12.292428314428792 7.898025072198111 8.476619656088234
Li 12.037179739257143 10.79911919822384 7.178829816424786
Li 9.627711418437578 10.717970063171506 11.416165040035825
Li 11.473459404513655 13.94122412260754 6.980461249728988
Li 9.072982178355756 13.741491863583798 11.565417671613107
Li 7.52130846055622 8.944502277937444 10.77540727379233
Li 8.778609380184392 14.577998163153952 8.4841198675811
Li 9.598075921780866 9.55642483686884 8.641508571713146
Li 9.04600096725695 11.98448384427514 6.765671839429463
Li 7.61526656825544 11.853135019173985 9.655938877277636
