35
Energy = -53.27254919 eV
Li 8.487045530488908 14.663216688930254 15.137544410791543
Li 15.188977061664753 13.175075977387449 13.792520695956366
Li 11.312897558686087 14.840668726784365 15.998053135742731
Li 14.241393099515701 10.41162588837143 13.284165585137533
Li 16.78796910950149 14.840275543924857 9.685715046256911
Li 11.164747179331256 10.803446447239121 12.909921802518552
Li 15.775031868242758 12.191801350787099 11.168448028071456
Li 9.755380979985928 14.021428462480518 18.117206979371144
Li 13.254146976816903 17.199373441428552 15.804266679093235
Li 9.967414559749152 12.15888102950558 15.63572279152336
Li 17.285428904915225 11.397000209159843 13.874764008227231
Li 15.938772933150526 16.34264369882651 17.361621044691972
Li 15.404374550398876 13.40011303500832 18.63247320682707
Li 12.673304429687649 12.400042774979994 14.802865544258513
Li 11.964550535567003 15.573285212677444 11.0123050000851
Li 12.451912474083775 12.466098632322211 17.67793018282572
Li 14.855053079887364 15.14860727983002 11.572305566355693
Li 15.608189293700296 16.1185716249605 14.347850213364923
Li 12.895927110895428 15.381394123448223 18.536167114926545
Li 16.794931386471895 17.20925584615295 11.809652990506862
Li 18.287416825055995 16.594701872812802 14.798802330308106
Li 14.224786181986833 14.381684517155792 16.320924057493865
Li 17.535333948287274 14.386461815988339 12.772581216255105
Li 12.215835566209941 9.869607136529313 15.7966041151559
Li 13.728450471131696 13.694811596109028 9.28441846124827
Li 13.74960871720264 17.660199175821788 12.546350182558916
Li 13.021475065056837 15.114136597799584 13.758135541315596
Li 15.054490232353757 11.486345015598708 16.199520773765258
Li 12.996584228347652 12.853509816835793 11.908412927072176
Li 17.090447771392828 13.876140027250322 15.873064790928161
Li 10.638631904688149 12.584532781834335 10.45157491037726
Li 8.336036305135936 12.192434721772035 13.007008427322992
Li 13.123281859421692 10.617353732519792 10.312836602034963
Li 14.472022377857245 16.914614989290055 9.53446825754529
Li 10.545571622669131 13.856997510777397 13.181503749102438
