44
Energy = -68.36082512 eV
Li 17.062750777423766 14.594530937989123 15.294071616005693
Li 18.528907230473816 12.811072925820183 13.293722576005631
Li 14.277107243703703 15.729638982170535 13.896999709630062
Li 17.05087402252948 15.344876196238971 12.297541105044255
Li 16.685863438047342 11.435422130460879 15.473661635895008
Li 14.220243970557977 13.107232004976803 15.953013099964462
Li 11.315170297774651 14.578191545542909 15.835464956325458
Li 16.853534202458793 12.705139654270848 10.490428357637875
Li 10.886133804803062 15.908683345574394 13.044180024927503
Li 12.835358636628344 16.691082868404777 10.877277763973488
Li 16.452065299963962 10.296616853694813 12.354671545028843
Li 15.831056002388529 13.120732060792877 13.342377883581564
Li 11.684113753183539 11.274408188457526 12.510375193800188
Li 14.260348850870711 11.787735685820053 11.338815217976817
Li 13.947843588695928 10.067883193303805 16.81864813295751
Li 14.087749531772591 10.821983556919916 14.098771308491486
Li 11.643908487073116 11.52260255076857 15.51760034270178
Li 12.841484698084233 13.542475889289355 13.396470902365857
Li 13.420496493271326 9.0819091980635 11.58827136579856
Li 14.404346689342807 14.451341060130389 11.01287919370715
Li 11.955527132789085 11.495177371129211 9.702256064915145
Li 11.8374092923909 8.714059563453505 14.103877220881094
Li 9.04090222978382 7.386837851447838 12.954303677958933
Li 11.45311010983696 14.06653920454466 10.937089570859273
Li 14.351957112074395 12.905271250015613 8.55633256888591
Li 8.323674213908639 15.21941427569953 14.696950776817452
Li 9.309389188577788 10.32223427104864 13.930391254096454
Li 9.303998238538828 11.862505460668507 11.214498001304893
Li 14.759629157385138 10.11780056400609 9.118761220395745
Li 8.796553514982548 12.48232685493093 16.20483928153043
Li 11.599584690522157 6.62918056612617 11.354694242232926
Li 10.44183423322195 9.115529148725697 11.338682827442367
Li 9.953451346596301 13.222332223642976 13.764869782287473
Li 12.265294395031255 14.849986787712492 8.329637159154553
Li 7.549288610649609 9.652722169990161 11.404991473104662
Li 8.984368196472609 7.365013512594955 9.77831154413489
Li 10.026666565235278 16.36340419217294 9.826758454910717
Li 8.48311699646922 14.523865181336243 11.56977500338025
Li 11.951760279085143 11.591642857608113 7.0188521814308125
Li 7.22673095760723 12.35226453892983 13.264371897025736
Li 11.877738587912201 8.730465669455754 8.892597583211366
Li 9.26595794582284 10.3505379045244 8.811512462728606
Li 9.650746374375121 13.361350740463973 8.695720403052679
Li 6.872746361164201 12.267234529489068 9.9281308531434
