40
Energy = -61.39349445 eV
Li 10.866255150708641 12.948293935033995 15.921951485497578
Li 7.679617153086416 12.43346706197709 15.473682366252449
Li 8.937097537439337 14.927354753776738 13.951541024590028
Li 12.957440245363793 10.5221248423695 16.696254869205806
Li 14.013600265157658 13.099789573846712 14.960030565986353
Li 9.931185274876663 9.964301835033835 15.574676605201393
Li 11.617890777189771 14.021648758179214 13.210765854302636
Li 6.898145828155076 12.971655174367587 12.461441933529992
Li 9.453181971892036 12.093393944485106 13.470037859401312
Li 12.335201823907571 8.21548622752056 14.49490230264713
Li 7.5502387821626336 9.876720028751878 13.485678212548294
Li 14.864572469272417 10.115278301718153 14.080915035433584
Li 10.87369753025294 16.397364648496925 11.448577715892098
Li 13.903370456730787 15.46305455935718 12.176150422582337
Li 12.181698860432165 11.096848093269626 14.130609232479406
Li 9.394792892138573 13.940371717913946 11.138826305622041
Li 13.83857241562855 12.435363216789924 12.152993630495104
Li 9.286388312143911 7.18698301919449 13.94593649184348
Li 12.206144024713913 14.041122747743263 10.273433719918888
Li 10.307323826482113 9.366176982557672 12.686556576967599
Li 8.51532963636537 7.999582549620781 10.932840797528062
Li 8.490769397815793 11.05648504389181 10.817384988193362
Li 11.361891375297246 11.61823638964671 11.415102633884064
Li 13.176336656096534 16.25141904693818 9.104858831936385
Li 7.515296958855041 13.25396292447104 9.077914099348872
Li 10.160840000334911 15.232449943003262 8.582138799642427
Li 15.032148548106191 13.831155604703907 9.849438663635022
Li 16.115318015750624 11.231212554747893 11.377123371625538
Li 8.459497203553608 10.072823998154481 8.096916159331748
Li 13.268323171178183 9.332534260507243 11.751603765015163
Li 11.49218854555627 6.996984059063657 11.647352467248185
Li 10.799553639449096 9.412824963698675 9.78824655885728
Li 13.11182065474502 13.181305774017703 7.579277016461396
Li 13.561122598922939 10.994420400451144 9.400656448300419
Li 10.368777833377704 12.267192074141333 8.803054944780781
Li 11.610513831849676 10.222530457280913 7.159069364677856
Li 16.192602208420492 11.509897157153498 8.339698210170056
Li 15.577148414893122 8.726365774463076 9.898302608500597
Li 12.907388161191982 7.843591827788055 8.984025790882562
Li 14.534543760633666 9.520835008000063 7.081338899015934
