42
Energy = -65.17342503 eV
Li 15.57434149733393 6.5308403743267505 11.584313550543822
Li 13.092358476764474 7.849724971838583 9.941676641469664
Li 12.06582289616631 10.069315669418808 8.271917587522537
Li 13.496401801147487 8.222859968156946 12.820332568503769
Li 12.049775950823456 13.693043193895761 7.7237873553678575
Li 15.455644991850262 9.423863341016517 10.843445185162532
Li 12.82236081846363 10.621453048328911 10.947331797600112
Li 14.383982130564187 11.746662021410996 8.712183267651934
Li 16.290513918301667 8.432483069154385 13.926118716539065
Li 10.323975092995477 12.291199203793727 11.985487212474512
Li 10.140485022216804 11.84815091457522 9.306918500293891
Li 10.296537766138288 9.424826894985713 11.208068180860234
Li 13.023560589632293 12.856717692398533 12.902692162291627
Li 12.120775663091896 16.393456841407758 10.054725041291363
Li 12.510716248626183 13.442075821031313 10.294158009860512
Li 11.752050329929602 10.445376567156169 13.770032297186157
Li 14.771888788607018 10.762193267077759 13.434436336703705
Li 15.420103797570103 12.63921365885359 11.255261995978085
Li 14.791126886827902 14.965700964320133 9.206851880716648
Li 7.699840697419235 11.940394207170987 11.139485896768498
Li 13.778628749254596 9.346748089350031 15.81792749385687
Li 10.969217999952932 11.090540726861468 16.614517714019577
Li 13.50783669042242 12.251386158188527 15.605348554397846
Li 10.839181810905803 13.193063443077385 14.71124912620785
Li 13.810342312989667 11.548860623220348 18.159041828632663
Li 16.96650769496634 15.364942805764109 11.520577929589697
Li 14.231234259205435 15.333032890075414 11.963451926862263
Li 13.192170395138726 15.109652522800518 14.774561320355089
Li 16.1545676157086 11.24419991677374 16.011571244057723
Li 15.739282924190304 13.68803097815369 14.010780040907386
Li 11.283323028096348 15.078975063231983 12.486217039154594
Li 8.775157671136444 11.226047443872726 14.083903396882498
Li 9.538133970125502 14.577380007657688 10.23375967889198
Li 8.719010332086452 13.490822175207223 16.37250043720973
Li 11.803266944598976 14.034282898764385 17.24280515135325
Li 10.299220974555395 16.071205593380316 15.016693553584048
Li 14.99862158402642 17.723480509090766 10.891861593728438
Li 15.095117941168649 14.216992167421322 16.906433660577743
Li 15.56463470401993 16.769816652342545 13.956795052918382
Li 12.562821201400755 17.54610168109228 12.977501359094926
Li 8.48455866767377 14.271201558162069 13.189365884836441
Li 9.56955753165591 17.191479717092406 12.077261304692675
