45
Energy = -66.29513187 eV
Li 17.733730661998134 12.9990570066183 13.991604045736178
Li 16.420170218213467 12.638937213666358 16.42647559876501
Li 16.665433242425514 14.59720617247888 11.880755796999983
Li 15.314161289166343 11.971038872491485 18.99926867088281
Li 17.029789245385277 11.456564530701216 11.747188573762221
Li 15.460180898353318 14.881949713495334 14.575801551660788
Li 14.503030684900333 14.539247621737578 17.37265796623645
Li 16.16164940653903 13.175994778947974 9.470185895501281
Li 15.74310047757942 10.732846884124585 14.26261455264863
Li 14.397220800185448 10.214296875174231 16.74129397984859
Li 12.809910499873157 15.18844214984881 13.371615256501403
Li 14.442471406318456 12.790496063652665 12.473733313861189
Li 14.555234136719987 9.832577437301085 11.896325536262047
Li 13.58408560443824 12.688218767504624 15.176456529837049
Li 12.64622807167304 12.304257269907566 17.959130111409582
Li 13.507946686474623 8.73940686886833 14.406755856956533
Li 13.665648272467532 16.863800588343626 15.651072697617996
Li 14.073981272908586 14.897103957415466 10.507105745604793
Li 16.10598563981858 10.09756588770379 9.399503220153655
Li 11.75204430286176 14.782585783987862 16.479262253301673
Li 15.450885717189863 11.658464181919154 7.107584288312834
Li 10.89133539938305 17.5710411366529 16.317359871527458
Li 13.672095400854069 13.802958576405103 7.7858296457041245
Li 13.584316242887883 11.74972352961437 9.934114848069333
Li 10.029588051340045 12.45107193072448 17.08382520248702
Li 11.31433895001309 17.745992024138026 13.537080561234118
Li 10.934547943581606 13.145649675945052 14.140008996305937
Li 13.74917744625918 8.469747839395346 9.446254012682132
Li 11.598497689755327 10.559296275554138 15.54566001911195
Li 12.264549113377376 7.982205437180735 11.91777468676036
Li 11.877343718705443 10.917912528441601 12.58367967736037
Li 12.299929224994095 17.005187382969588 11.056963167678347
Li 9.454354328559914 15.668022536839034 14.634636209097021
Li 12.823614747783578 10.55502820962549 7.38322718589002
Li 8.103864163440964 13.249977462489277 15.299792448503952
Li 11.445771254748326 13.726630420771523 11.280679183433461
Li 11.527751120295482 15.455513146064966 8.761594683118084
Li 9.09312531193165 10.90556122620771 13.906109226280867
Li 11.249047669677742 9.85278600854012 9.766102680668757
Li 9.59755023108291 16.167256380971182 11.675279006550491
Li 9.557841068484713 8.917685076799888 11.857095578896569
Li 8.52432539237514 13.654777120689838 12.521061616828833
Li 11.044296877101809 12.503650567745753 8.542842963196682
Li 9.253179057528877 11.57069776298278 10.747186851043322
Li 8.944962390025974 14.264377496100998 9.590063205059002
