40
Energy = -61.75016415 eV
Li 15.21103135925432 11.75016030883391 8.409911007127445
Li 13.060947897331092 10.674303020218888 6.425308132758537
Li 13.709825356737849 13.76809244639248 6.55295382724311
Li 13.007710974759593 9.540083130795493 9.395566125207438
Li 15.801953788993222 9.534697380968566 10.436424092845002
Li 14.327894978077527 14.376744187358613 9.645914229865193
Li 10.47067296313009 8.3314234282556 10.663034356863403
Li 10.72232922876204 12.853061619192529 6.337587537122403
Li 10.768555953127922 7.4933651496752836 13.516315941872218
Li 13.868472866625858 11.70018560585318 10.949453497501448
Li 12.34768235432331 12.327192166924558 8.472543482398825
Li 16.179237352132795 12.48551604684419 12.32673995582706
Li 10.29643257018573 10.285755338220806 8.08474035787462
Li 15.143286261172927 9.833733360863254 13.209869477943998
Li 11.53068883954644 15.152582785622265 8.53771789439896
Li 13.621554136625651 7.446559997326527 11.682102307940617
Li 12.37831212465145 9.704797892704438 12.622630607140218
Li 8.030022732997692 10.317265618342406 10.415572970515957
Li 7.750054637240218 7.772926237793638 12.347223625082643
Li 13.434333934035722 12.36671933752822 13.566079758615047
Li 10.835359188141535 11.169367468009526 10.778465972391075
Li 9.406006237059696 13.02211198383288 9.218334569204691
Li 11.924253130637444 13.767491662294342 10.974336468824955
Li 14.299327690445995 14.909455174234422 12.619924827735447
Li 6.643317634884373 10.473766518117738 13.395165630459626
Li 13.512725994165812 7.996409382519658 14.774333388808815
Li 9.302654121079604 9.932526535560896 12.970153084341995
Li 11.654110471048103 14.934458089442554 13.385817794148553
Li 8.453388628058235 8.716164695457437 15.288656852414908
Li 14.2816957030969 11.01611985839802 15.751264078551507
Li 12.37546960966159 16.76327782668009 11.33329626384754
Li 14.933577173995772 14.00968461323466 15.287397277138922
Li 8.306206239556609 12.795860085720209 12.166832850309888
Li 9.611617594785349 15.387128548527306 11.316676947683083
Li 12.924931694734621 16.645762780045548 14.955996865358248
Li 8.7585033227712 11.826982106664058 15.233213131470645
Li 11.372052320416204 10.235340972257655 15.194586198295708
Li 10.71037749409162 12.39072519858027 13.325329458029508
Li 11.872230264527756 13.47599255883932 15.81419413476361
Li 9.148656618412229 14.850249236625551 14.491810782463245
