41
Energy = -62.8120394 eV
Li 15.02578837910152 8.707755379261423 13.80253829928706
Li 15.949238224178417 8.34379322265444 10.668067782249642
Li 13.107171088590702 7.38700309468446 11.541799793043067
Li 16.694972370367694 10.865250404718303 12.2506910939087
Li 14.21949658285815 11.652774593515451 13.917733717092013
Li 13.167500178692729 10.309368781708585 16.25641062400977
Li 12.190847810189249 9.400129294939598 13.6651610624082
Li 16.30193192239103 13.746811658585791 13.636262416019141
Li 13.590837970559521 13.63185552285747 15.811025005716367
Li 13.38335405782154 9.188128396025734 8.706234293365455
Li 14.029837354052328 10.116474578601094 11.448301627409702
Li 15.734024751113427 11.036644873383475 9.132189176056306
Li 11.25758630919826 9.497498988726955 10.73649361398095
Li 13.561759619474172 14.450983830668267 12.798785238895501
Li 17.633319883178025 13.371478661805641 10.713332755753223
Li 10.047493868833955 7.583579940869033 12.706982983284396
Li 9.889113312917374 9.272833237089747 15.529643537174445
Li 14.95960822923178 12.912109613527791 11.095838100911623
Li 11.061275519963036 12.07327117674832 15.04920185547018
Li 11.921738565926598 12.129706896917794 12.319057887767043
Li 9.540804427629812 10.435026879010406 12.90939581898017
Li 7.832610274240105 11.613224227618703 14.994591700935162
Li 15.644428948185132 15.707667979625322 11.150706803204042
Li 15.66908484854739 13.942395893445525 8.442289765006711
Li 8.894987264924824 14.423636082238898 15.757424785215305
Li 10.638444260656293 10.553425948332164 7.995931356447078
Li 13.276654239128606 12.23077723034978 7.066492593679008
Li 7.357307343361624 8.94229481682197 13.510613871093641
Li 11.340680800264858 14.963953312747496 14.21949807317437
Li 12.622673041763525 11.985033043430665 9.611416426504537
Li 8.36892376131807 9.224121472334476 10.454280941390303
Li 12.350454203497506 16.917925360710917 11.940175954010003
Li 9.156641196147184 13.336559183736824 13.110757880616955
Li 13.164071510942174 14.825836063711863 9.59492992379053
Li 6.6378492239699165 14.2996977144949 13.574134274517506
Li 10.612950562131399 13.699456569719477 8.255295766093024
Li 9.65667525415734 11.96405009900916 10.430205207750864
Li 9.057494525883673 16.19300081863353 12.931121217922279
Li 7.028408993847331 11.623358666342712 11.950075996705966
Li 10.901732263626101 14.546577770165515 11.188383416959503
Li 7.9700910957638875 14.366525034010959 10.59182155921475
