42
Energy = -64.68119172 eV
Li 10.11955341221506 15.668556074246135 10.669096549334228
Li 12.876960946279477 16.30685207160343 12.199548859164706
Li 11.463782023722652 13.837899110995684 12.494073953129247
Li 9.855039505651028 15.049688985397092 7.631068445985901
Li 12.693108468502333 15.00145588355584 9.113731685919559
Li 8.77612929482255 13.239754771385511 12.233625318274653
Li 15.068900885476515 13.010608949923443 8.404690972097574
Li 9.647890560310028 15.748969636418256 13.699257458924542
Li 15.203561312040215 14.75676319810323 13.50262065582537
Li 7.6598247270713875 13.940269318233362 9.690576814633548
Li 13.051731628293814 11.65987703129729 9.484527335816873
Li 7.275765068358494 13.1960782604137 14.667671922515025
Li 10.477930414336422 13.099382436235327 9.559733057291647
Li 13.861142840745377 13.70703882654111 11.220569658474272
Li 12.487228896477562 15.112811737285108 15.116712258582947
Li 15.58508005823084 15.687297008167425 10.455337854884275
Li 6.153898989905692 12.0738344374072 11.91076883167126
Li 16.36853395422528 12.622417100685173 11.18985380284979
Li 8.7784523336039 12.238799582757585 7.433366780743239
Li 11.962560424333702 12.705207909735641 7.067260283930024
Li 10.154051972968983 13.151929281553619 14.948249952663863
Li 16.126369563003966 11.906812543554896 14.087375655152197
Li 14.839064460421914 13.339150739318784 16.459158972886147
Li 8.535900358320173 10.960894246998503 10.399751535203956
Li 11.21526172164775 11.18764363814277 11.603464275942942
Li 14.082619510930616 11.074015274074263 12.173763096746518
Li 10.778379122395283 10.18840816966261 8.538895085122382
Li 9.137169192134595 10.793042737066672 16.335922999203202
Li 13.348505374746964 12.6104789829062 14.257605248338828
Li 12.072721107170182 11.81850623022253 16.798596923893275
Li 13.75913896097709 10.02200437293271 7.3756790931590865
Li 15.43309746405133 9.884632881147441 10.010320725586377
Li 15.875976646284135 9.044779451181865 13.017479468671135
Li 8.487160888793243 10.750876193888052 13.43930712882399
Li 14.164096566324979 10.07430754106422 15.476833639418324
Li 10.236984434050605 8.563650495668712 12.124154579439416
Li 11.22697668607295 10.746190817241738 14.238380327714193
Li 12.709420840582228 8.894304977374398 10.236349252290793
Li 12.987160628077733 8.775671577653165 13.16853396774582
Li 11.449739998289596 8.495757896128593 15.751803461766373
Li 14.404106090017406 6.890968636708516 11.586858099185163
Li 14.244617575842726 6.998355956017041 14.85454052755474
