47
Energy = -73.27587066 eV
Li 11.255978438230601 18.978328755891557 12.265473967697343
Li 17.507152204511847 9.869323308128708 13.316761841011965
Li 16.579803571045847 11.632820582535794 10.80564758613309
Li 14.948976746979868 10.988488956738683 13.007484623746828
Li 12.409641430493004 11.962835339060897 12.219415112600027
Li 13.943697786629729 18.599385449630343 13.95671816497874
Li 12.933671948816166 10.755461745848526 15.204706814713768
Li 9.603787148329761 14.803542184697134 9.014537809704878
Li 8.63330941710027 12.263180307754089 16.236475536016762
Li 14.937889806849991 8.488040831688549 14.604813947700736
Li 14.518023681448716 16.27528677356591 9.585956958963571
Li 14.138576166200442 13.25735107072938 14.702373014595365
Li 13.78384637484131 10.852938381269919 10.18984319737003
Li 15.970397548793176 11.163594776316895 15.774819272883384
Li 7.842563488555029 11.737660454701734 13.27765543470699
Li 11.235398733577538 16.953233666889652 14.595592626612667
Li 16.057991560262384 17.7469257085481 11.779286765299892
Li 12.0330914532586 14.590186399059231 13.393163358169815
Li 13.989984640719136 9.370260200813949 17.405164649113576
Li 11.159099505022077 10.692530526662026 17.205237038367187
Li 16.98274744942989 14.801755905792103 10.873270682611219
Li 16.92634772319968 13.040473427522612 13.48911942414174
Li 10.132005557701905 16.233926885678724 11.78318451774658
Li 13.132505914932347 16.875374425807195 12.023599056175252
Li 12.120681404337857 8.416136658990895 10.313352131902136
Li 12.064824135722576 7.8541279506973725 15.506968460973313
Li 12.449750243454496 9.162768425520406 12.931828294330211
Li 11.29061869630715 11.98498643876616 9.23216503766238
Li 10.525838306639672 12.113387869258377 14.23219695587639
Li 13.847050783464582 12.645076818781241 17.437869276096126
Li 10.33759069699845 7.297275299131788 12.694556032609112
Li 11.356693129264755 13.842660796094078 16.217222437513787
Li 14.661110206032747 13.290203858071196 8.898031324473685
Li 10.084176312675789 10.289559456214194 11.636632742440328
Li 13.674366267420865 15.79910864223251 15.979338545322278
Li 13.745742140590817 19.222487408143202 10.644229078976734
Li 14.56568583438798 13.771444049722678 11.681936321630959
Li 12.338796840342765 14.844830240894181 7.625220185458504
Li 15.358033498771663 15.689690903764197 13.62377293878103
Li 12.140903277002979 14.510973296580737 10.334768314443158
Li 11.626209900112743 17.305376518286796 9.43959097889797
Li 9.761305329917686 9.58168272909298 14.653463116246948
Li 9.82427241240245 13.26722414618804 11.612027624998053
Li 13.308326831834975 6.5350096687954204 12.780899831380847
Li 15.173874305744771 8.636647181146671 11.520427455838549
Li 16.342656848528623 14.27800964157716 16.262750258958768
Li 9.096031886013584 14.62582134601403 14.243770491142966
