44
Energy = -67.99924942 eV
Li 18.501766257808686 11.453983211959473 14.867833745691325
Li 18.78719287418262 14.50237471981599 14.420983396582571
Li 18.67699499887556 12.50498419413122 12.07723805554576
Li 16.629264691625842 13.165370677205646 16.422577842898185
Li 16.384406499128428 10.383299330208956 12.923176597435896
Li 17.114707550311824 15.25390422689661 11.869468450017644
Li 16.247132101267667 9.870489353192436 16.166472372615658
Li 15.963459384688468 15.925552394613064 14.735183822101869
Li 16.461065082772112 13.154441266321983 13.647777150938902
Li 15.957099078488946 12.589755808616557 10.670915963890831
Li 14.39586867381427 11.827343539443017 17.91403281463627
Li 13.890429494071926 8.801122769902339 13.656107103455458
Li 14.076405386740484 9.800370899516734 10.673515764385186
Li 15.035820353766972 17.535890686628388 12.147096653494886
Li 13.716374136801658 14.064120420645343 15.500421526754803
Li 13.199291038910095 9.326330767059284 16.492531714482915
Li 14.697997710937763 15.249964897921137 9.8557706473136
Li 13.88238286964924 12.061591635170563 12.376204447862401
Li 14.444045897922095 11.467249952914347 15.061154718540953
Li 11.763309553555294 11.896598958669587 16.361118548477744
Li 14.24261149165433 14.876735747507862 12.618259747320508
Li 13.440233017902436 12.37222588310961 9.017461326401476
Li 11.575662987653033 13.437979395128517 13.626930816106398
Li 12.027139340337065 14.09590558802022 10.808183667133154
Li 10.503188438569506 8.72754873083711 15.120127374478756
Li 12.734614243665447 16.651464040097228 14.130263233825092
Li 12.33526685318171 16.86757064799438 10.939730911293669
Li 12.171583207156463 15.186655312590787 8.172437216846502
Li 11.846971863836549 10.60401659167127 13.82075665446338
Li 11.437327731931864 11.216887098790927 11.019399283046365
Li 11.633455456039997 9.690981678742638 8.692187038577863
Li 10.726163041030409 14.862835484029818 15.889128740373595
Li 11.411064295744605 8.462174606884174 11.699537905624506
Li 10.173806518982333 15.82291065075805 12.807284405364468
Li 9.616012715427015 15.359336145126584 9.844037832719858
Li 10.380537617188493 12.69250345113419 8.69851118551585
Li 9.218796106859465 13.058771437411245 11.732079674371912
Li 9.142745877989661 10.1300865639808 12.764901596262485
Li 9.290127032997894 11.852280121873697 14.896451993901172
Li 8.834551052711896 10.46661673307464 9.958005852825684
Li 8.105577099593534 14.330739229713146 14.29076670756211
Li 7.210552161470734 15.21010913745794 11.6614633103569
Li 7.4280639228467855 13.173460628637326 9.511145195867297
Li 6.770330515768933 12.10627078119772 12.483915218663064
