44
Energy = -68.7108728 eV
Li 10.761970890148394 12.166804456313177 13.946892967536405
Li 7.433393684124138 9.305884016131023 12.32752867307042
Li 8.088080059312716 11.588308160659075 14.54983310948179
Li 6.473484859381637 12.209798813510247 11.732561084704734
Li 7.889980694162891 10.387547441884038 9.438205509754827
Li 10.086316863429907 14.223045948869288 15.908855460517952
Li 10.176645073783073 9.320777037100875 13.918662264729692
Li 10.201913714715463 8.597149689623754 10.74906349508447
Li 10.905216569020677 11.139123802985855 16.57621280341122
Li 8.781747748094402 14.230486030024567 12.947595873585474
Li 9.039973010022333 11.3564895137997 11.762613661242098
Li 12.893584043883163 7.958610027579191 12.593789533596839
Li 11.660031997930068 14.95298248982223 13.608982525218057
Li 8.646559212734967 13.542820851403734 9.814765099545912
Li 10.800508988895725 11.283437797614862 9.291383106570233
Li 13.059357830228127 10.250540723971417 14.593037613498462
Li 11.35736959944965 8.669624961871508 7.827277753445707
Li 10.022524570076015 17.043766677509293 14.286941671527268
Li 12.23250052037091 13.508284950590156 18.161056156624802
Li 15.468972977189132 8.648877926959324 14.475738822008196
Li 11.834202750128217 10.546531442392537 11.937360045452055
Li 10.536757560207693 16.109691600504835 11.041511926663215
Li 14.085638954421881 10.888770043598342 17.21160183497598
Li 12.494154676192153 16.163885264783566 15.967702593705926
Li 13.204003437190304 9.278589372083879 9.809010060986523
Li 12.921988611025267 17.310832803809955 12.775963911812614
Li 15.599878458495656 11.894946661711067 14.611574114266599
Li 11.74766392304389 14.190441010386397 8.682662773793414
Li 13.503581187849298 12.140524103662111 10.140740635633366
Li 14.507754355858145 8.122356863884825 7.7557677186175535
Li 11.039998877620363 13.314728391043758 11.321563572123507
Li 12.667745938539309 6.596139127364544 9.64716411760489
Li 14.707818116426656 14.995383739967231 13.902580148168393
Li 12.99186114545535 13.08662736718517 15.60401263329598
Li 14.80746629426094 10.306065162030752 12.172302849449625
Li 13.400803193466732 12.751514409201608 12.884501620567386
Li 15.618484680492774 16.321916649225166 11.141508055139164
Li 15.898266906393069 13.159499152054927 11.571276304691537
Li 13.162587279333835 16.99381275137934 9.335191853111674
Li 13.388726874611002 11.250255744416497 7.498061740822467
Li 14.919908879468894 14.176590536116265 8.774592241736752
Li 15.838251522928498 10.737868502944817 9.316961131768837
Li 15.395588768807656 7.7512564012861045 10.791884906936119
Li 13.346896080995897 14.933687365901145 11.10925439660418
