49
Energy = -76.30332185 eV
Li 15.002745106070465 7.451686279828574 10.028502283386668
Li 12.334206162170434 9.052669080947618 10.040439666286012
Li 13.183889690551673 7.516724031167579 12.63096407352365
Li 16.575533763483865 7.85772246491441 12.597606101829642
Li 10.264693888407322 8.461745676538992 12.03713612277048
Li 9.82839896377178 11.479093935529747 10.912539552360398
Li 14.777497034611129 10.180186522516028 8.912181711253577
Li 17.219556949643028 10.501218266656437 10.638253999550205
Li 7.506804432881679 9.463319892845579 11.866824757769523
Li 9.521199058190609 9.402852049036126 9.046052763068808
Li 14.607017858718919 9.262336593619306 14.854785793502828
Li 8.632353721879042 8.230933132463267 14.634939521660948
Li 14.718039231266141 9.662246939982028 11.79855838463367
Li 11.546420235198054 9.20870919279129 14.831710840572777
Li 12.726190238668856 12.018528014707812 9.9033708896805
Li 16.872192130569786 10.683519695700681 13.636183694522586
Li 12.181430340639782 10.622667094471481 12.562996640494866
Li 7.311450021368562 11.424861494927145 9.545276643049544
Li 9.248648686605819 10.815201521868309 13.686173240714261
Li 12.170638722678095 10.664664367804312 7.4824671004681305
Li 15.804183845925172 11.934738639973121 16.396687155486354
Li 15.583932654725734 12.914833824201137 8.588993159221364
Li 6.747946626623035 10.56622457074544 14.884239869927317
Li 9.528004300968725 10.732973357495133 16.553029038647704
Li 6.971536939250834 12.455115978732929 12.457779558235675
Li 9.92531727493657 12.506343226881311 8.300764992613678
Li 9.491425964100264 13.831175973404516 12.571875809817225
Li 15.141368663600273 12.403061973046148 11.52445282551974
Li 12.798469264475772 11.21842038896507 16.75608084379143
Li 12.884288218527205 13.935787799297852 7.7047318283290895
Li 11.219648193853265 12.490898463194261 14.834716153991772
Li 16.87254431763555 14.596632104104435 10.821230955468245
Li 14.238003323538264 11.945578792350291 14.160268435720319
Li 12.334047955382038 13.472704404517668 12.447437608411683
Li 14.023672182889513 14.815660201415549 10.232477277054453
Li 10.803733746503392 13.630848511548244 17.306647618953946
Li 8.37246214091002 13.268817485245396 15.235653203901986
Li 7.9620432962829115 14.329147943830613 10.241897108054266
Li 7.2743907993857295 15.42450558633365 13.271114562906325
Li 15.457321289066158 15.983700200315921 8.21701819938754
Li 11.025712050078969 14.49664320412098 10.107670126256858
Li 16.850401594006488 13.54711804669013 13.915432299630504
Li 13.437317962907077 14.188361739368082 15.718711903975752
Li 9.492809804229873 16.566673082072874 11.623249336383173
Li 14.623980474201058 14.977232163709076 13.080979288462217
Li 10.651194179367291 15.411646854127797 14.593762581461979
Li 12.536859237254923 16.886910548060207 9.168811287207772
Li 12.317221250320017 16.358505121397965 12.188981053535434
Li 15.13643992371425 17.197891316969173 11.050419040930576
