45
Energy = -69.44368256 eV
Li 12.971099138745487 9.215538219237851 9.29053698586226
Li 16.172215928416644 8.520430723944878 13.584872337824983
Li 10.561589693760492 7.427228296688977 10.790622430820639
Li 11.53896197870348 9.961039653977938 11.552045490203428
Li 14.844074569237247 10.163559722111458 11.605756994633872
Li 17.906029492103166 11.070834622045751 12.333870795882673
Li 13.36227916400565 9.547414427072642 14.131506204710417
Li 17.596301171269445 13.97125698647133 13.734415280684967
Li 11.096714393807073 12.284217014078234 9.790297205468754
Li 18.483289578196505 13.735732234979533 10.75116372436415
Li 12.966709887701278 12.331672308256406 12.458074493155365
Li 15.963860422164966 13.006512740160886 11.552355991369689
Li 9.445822871848645 12.131496919208603 12.203465788249623
Li 15.660983651421256 11.44462495741919 14.077850129359563
Li 13.372910547451225 11.97316241334762 15.845170472229702
Li 11.353734114098033 9.607424608060457 16.517522093824375
Li 10.564402458756835 8.432236997444686 13.738698688029013
Li 9.619121524934558 14.746933657584977 9.169237311298515
Li 16.112586726752316 13.455298344288915 16.345652166661157
Li 11.095772635715061 11.307938663220511 14.261969656468379
Li 13.33780157823312 7.624480462438476 12.064462124312962
Li 8.429037820723494 9.575472736696716 11.87174943391127
Li 13.281089236727768 14.733056094733781 16.725157502189507
Li 16.771291922293194 11.296553551226912 9.47490993767639
Li 14.580162370215607 14.134336548390303 13.982738232548844
Li 11.029950157940796 14.48073360789614 11.607000542948741
Li 16.29334445641298 15.886679514647104 11.856533593035238
Li 9.792692976109102 9.80971904632395 9.203981353099719
Li 10.099485937616238 15.618617682190589 16.40240053092579
Li 7.914723190321486 12.147649797196177 9.964013259583062
Li 10.528831026393362 12.640626044209991 16.73125808160755
Li 11.61823365954904 14.332639971944317 14.407408530560144
Li 15.696251108656446 16.339581092672432 15.112153463522558
Li 15.922138023193869 14.377147623433189 9.027683049540931
Li 8.506416239266015 10.622565634394379 14.910671737745176
Li 13.895959022342698 12.070090958037886 9.608368135825645
Li 12.485072746835538 17.13550219025993 15.417338054668862
Li 8.76270382631752 13.67264761026857 14.473470133772816
Li 6.637309150186134 12.007316553228824 12.810472864561328
Li 12.591512413400908 14.578679734327718 8.395835600584471
Li 8.104891183290535 14.684241292952844 11.732163141270384
Li 13.698952120539051 14.644571027052903 10.881936707868935
Li 11.56181155316776 16.90610505321334 10.321017210888064
Li 13.306254397108754 16.461033621710996 12.85058681946697
Li 10.162164727045162 16.571512430387877 13.286852414540384
