48
Energy = -75.15238037 eV
Li 11.63206267160119 7.987660135678822 13.267729646373184
Li 15.190922813245963 8.044759017529895 13.29726433103242
Li 11.847502769214202 12.10920800610404 16.875614573680956
Li 10.213525650490736 10.004650839252967 15.126110008300799
Li 18.0381656164532 9.74453408021538 12.955871284343997
Li 8.552347474844437 12.259777257912713 16.61014726858727
Li 13.474401935033985 9.605832331509955 15.28475989602661
Li 13.44018914523072 7.292800167497726 10.704184709312651
Li 10.597403832593626 8.750737980233906 10.475346466959458
Li 8.510229651909535 8.477676341946951 12.894139369976774
Li 13.519246870506167 14.5620454318247 17.93055087727124
Li 15.908172276927893 9.446572763029428 10.653509713500656
Li 13.220345815953618 9.741671204865204 11.952315819912378
Li 10.329935388744493 14.744211339167551 16.815254072105656
Li 16.62682399005949 9.9020951417595 15.61386515514714
Li 12.573864910046177 11.684626704813358 13.864910054835008
Li 8.066205845375753 14.55994313868138 14.341107854611407
Li 15.516454962301905 10.871521108053477 13.284335563513377
Li 16.010015574421505 11.516240933012925 8.329854375144725
Li 14.728988528653597 12.393754889170175 15.945594895995692
Li 13.176285312788762 10.102377529174797 9.212042958766473
Li 17.528768469512237 12.204141008421143 11.096334858244031
Li 7.728188670808306 10.824645163657056 10.780910701266741
Li 7.7009554253741594 11.45026701049856 13.763215647149158
Li 10.209723349109359 10.61888541179973 12.39988954135478
Li 17.378106699006356 12.691046140104062 14.189627378586925
Li 12.105402828963555 12.35962699982784 11.155728298444023
Li 7.904057041306142 13.808615176060002 9.301169621342154
Li 10.261248329888302 11.653082147882554 9.259516177584361
Li 14.821131733952333 12.1866893059493 10.715605504657747
Li 12.71892200238714 14.490985421687293 15.259691295668183
Li 13.206626009986456 13.120397731160061 8.429678568468457
Li 11.49310994413623 14.617191759651964 12.589249964422836
Li 10.227449692337998 12.95152221737006 14.513693949119974
Li 9.091681570170135 13.18125761320375 11.701353160862395
Li 6.377100836819191 13.643754419836126 11.901366974287804
Li 14.485094360868807 13.57446892466373 13.17683807052539
Li 15.984958827497849 14.522975915937778 9.201844320567332
Li 13.688059298037786 14.99111094653022 10.734317565483364
Li 15.652281016315829 15.168678448405716 15.371566440464914
Li 10.858744194968288 14.663970269193646 9.638082949427769
Li 8.738454763954788 15.922663683844439 11.555232221309232
Li 10.610864173483552 16.524955292709983 14.196954816228656
Li 16.51259897608131 15.036794891588919 12.192432569365483
Li 13.3891928255206 16.23795132021927 8.291017661880296
Li 11.796962318426766 17.16037188000199 11.112292763113594
Li 13.780690077829428 16.460494775676977 13.30390168151639
Li 15.117638783823235 17.312628452469937 10.593022906978419
