46
Energy = -70.55886714 eV
Li 14.376962135989599 9.869015298080658 8.252137743398235
Li 12.155976990421538 9.988547678635213 9.92427578820856
Li 15.156785877954373 9.535091422100777 11.242576162774746
Li 13.048503391472265 7.32044918129916 10.500885713239398
Li 15.929859186230415 12.253936826483603 9.687751961953001
Li 14.362950614311433 12.703311600891807 6.811452416705152
Li 11.464179788508684 11.230144352921078 7.377764927394921
Li 10.151414508116357 8.519530747813851 11.323913708249005
Li 14.447147255691025 7.0501395898940045 13.335289695261396
Li 10.447219776749826 12.798086539956895 9.844031291950404
Li 15.0664035497939 9.935028977412887 14.382185452344135
Li 13.2288033530626 12.448490997064468 9.23035165508626
Li 9.127786175988014 10.36486516616755 9.366992773916154
Li 11.261426452260467 6.778993596544555 13.415690970951093
Li 16.78320185768516 11.97513659491026 12.802631128947883
Li 10.956890551379034 11.341353088675977 12.051283155522183
Li 14.595071776450107 15.088141391263703 8.924271189626104
Li 11.752080917044625 14.406434812805799 7.694680986126327
Li 12.754751983055515 9.125370531009748 12.753161161780135
Li 13.78196541364997 11.938405732486194 11.878227384185962
Li 7.640703145042865 13.096050392075316 9.718686808908815
Li 12.601009703730382 8.320614264783943 15.62061106727883
Li 7.946686079428276 7.917880764661858 13.224293551006554
Li 10.082710589912429 9.490663837830555 14.115407590429525
Li 14.469790724523602 12.821926801680835 14.332480756124806
Li 12.47805353840492 14.69050002635615 10.803860789650718
Li 12.164089830718364 17.097355198991714 9.217788175284106
Li 9.64770171849808 15.545334760620385 9.65420261709771
Li 9.477807044519846 7.611776140110714 15.952322634328395
Li 12.306344524662492 11.111239017689474 14.695029946383665
Li 9.16159611758057 14.0706118650904 12.21818919731321
Li 15.353731643667095 14.501544631204013 11.958389593449718
Li 11.777566639542085 13.679014877910774 13.303729645608422
Li 8.185665829340676 11.000137266105048 12.218220768863963
Li 7.709678543045417 10.131601730502256 15.354683923912473
Li 11.077398306424957 16.643895836830936 12.21508753620591
Li 10.5354343719642 10.404541514085375 16.873418820254795
Li 14.006220696527746 17.15955349533558 11.547002828256067
Li 13.599256692746078 15.565187089572056 14.00579162458741
Li 16.295589802951284 14.566547460572504 15.161953873969066
Li 12.52664009159972 13.50151654321346 16.336550670030878
Li 9.67029447644387 12.498828697153078 14.794073558612553
Li 15.741086197548364 17.321167640389316 14.083841662348036
Li 10.86166018060321 15.711366593589453 15.130273785443842
Li 12.831641449813816 18.21234203706227 14.298266424029324
Li 13.957105838045525 16.378452242571093 16.514898010814274
