47
Energy = -72.4747171 eV
Li 10.693337344855868 8.98429247950285 15.384115740103388
Li 12.021444771566632 8.578947124948408 12.762181225731563
Li 8.977258773299956 8.487023150708543 12.693529656054544
Li 14.957246687980668 8.423770787537354 12.336353994298175
Li 17.02509756877054 8.73699475233022 14.703758913252383
Li 15.278888735964497 10.702042189954062 16.804863615423635
Li 12.430728891970663 10.134989805344793 17.762497183903267
Li 13.876523330492512 8.558902076771915 15.239948050260123
Li 7.85141012984085 10.293488232226407 14.965210059288617
Li 10.436020784342288 10.198042068498836 10.565486489713555
Li 10.292387920041786 11.869924150319575 16.305698270410694
Li 13.189190443847698 9.198930782504647 9.784154612472577
Li 10.111449126312795 10.913624998741291 13.465098513977129
Li 15.079901491635294 11.195021736268048 10.95481226835785
Li 7.805022925067755 11.237903605024863 11.854055897732387
Li 17.51129799284521 9.837168515468072 11.777191238971712
Li 13.075794352584513 13.171900976605778 17.336348116782673
Li 15.394705231953326 10.709255768315021 13.816132357463516
Li 12.676633646634714 11.111275967601221 12.241899495074426
Li 15.743865920678997 13.450866140855968 15.61875826135908
Li 12.871164902837494 11.253450723850397 15.176774149813035
Li 8.652363316576311 13.298116177716244 14.17103004307001
Li 11.214075293962502 10.45461930939127 7.415875364798017
Li 14.30713495414301 13.266936859451455 13.223954384739065
Li 11.506903674709656 13.470566135837707 13.794413167919744
Li 8.597335041897413 11.506516859895493 8.706770182411079
Li 10.802460257457303 14.876405641143421 16.209748863145776
Li 14.751786887939359 11.447893674612441 7.923423208874316
Li 13.033758466019945 16.334300064704458 17.845051941098898
Li 12.533158958093717 11.952231228145472 9.337106826402414
Li 17.183837050764367 12.708219903864165 12.974054012359018
Li 10.096802328049616 13.037316249886828 11.147004477473292
Li 9.515904416812868 12.228928090301238 5.624462123474166
Li 13.511098165874806 15.291902493940157 15.311194322769603
Li 12.779911814236986 14.000163641795842 11.010147126798394
Li 10.063627051920694 15.802363541242803 12.933125659847635
Li 15.55284625251224 13.900786294700131 10.467957732508477
Li 12.539174264417627 12.620300005811888 6.081874777441057
Li 11.606698915429881 17.45813154385669 15.09429240164219
Li 12.772603463018616 16.03721715443166 12.795243362627478
Li 10.618984624061675 13.480030432943723 8.046914265637499
Li 13.512310950303043 14.534125054418336 8.29291035242747
Li 11.222083984569277 15.952623763232905 10.011321064388259
Li 15.736973421574099 15.57652730611674 13.15305558425237
Li 11.748124535981379 18.392336589074496 12.015438880538984
Li 14.212477727827913 16.858639697361724 10.664088911921475
Li 14.271179125810184 18.110743953073293 13.844880757194682
