49
Energy = -76.48282175 eV
Li 12.000457916565887 8.61356867779019 8.187126542945116
Li 10.12551982622371 11.448858600302442 7.817473350285282
Li 11.142457223688274 6.8041461264641 10.80076246051144
Li 9.570421193790585 9.224994602883678 10.077869749928915
Li 9.62949036775907 12.001055534263239 10.836817123846402
Li 15.251985240481773 10.065330146652585 8.919511741969496
Li 7.257220881374968 10.466960315519017 12.451416506646574
Li 13.37894273531398 11.938206643710918 7.262318234922678
Li 13.833276268043866 8.030932007703523 10.557097885187307
Li 12.18581536954443 10.80983723968513 9.676675131391958
Li 11.59024278122745 13.728690670086353 9.219463705606529
Li 9.102622073002594 8.0360322223448 12.798054674518944
Li 11.654855154845208 9.335785375385056 12.05030650752293
Li 9.720914543524138 10.807347999429183 13.522874638439491
Li 8.782531434339605 14.781766405667149 9.765992936279618
Li 7.942078163651338 13.627752766179881 12.552362723519641
Li 11.267392224708386 16.730024711667085 10.00328404529047
Li 14.356952915552297 10.54366336886244 11.703855884840003
Li 8.135227858323912 9.254675107308604 15.335881542797756
Li 16.589964583346294 12.862398428406513 8.174657933893528
Li 14.150179872225788 15.056098151793197 8.237667830370551
Li 12.119216025141736 12.367240561744444 12.087151254978782
Li 16.567380438334702 8.883821475004853 11.647486076632953
Li 14.28383783741653 12.734843759243626 9.827814612902502
Li 10.6812403591556 14.704314328635101 11.923087669612956
Li 11.290510347958923 8.697598522117856 14.981822159496877
Li 19.079982906974774 13.481106430131966 10.091179360968512
Li 16.916643700681405 11.783039747980288 10.950479390960961
Li 16.429348603814013 14.682018088673322 10.592779348350552
Li 10.067078855192545 13.42706266907108 14.540939370624342
Li 7.5628785357200305 12.150329327932955 15.231354903446373
Li 7.702560651197688 15.207909470788296 15.050864546429302
Li 9.030443273710441 16.684711979307618 12.489689076533455
Li 10.434152668084801 11.0967191628158 16.43775975176324
Li 13.459469146159345 15.095281167595056 11.154394811108304
Li 13.720439526446906 10.361932223032769 16.76487481058937
Li 14.02616684967165 8.583266297201781 13.731463736003386
Li 14.889727470578743 13.139437172013837 12.697948533248779
Li 15.975367583699864 10.884202193231957 14.086341397963393
Li 12.768320053855048 11.355159032809253 14.472448083249956
Li 12.75988025618186 14.49818072080521 14.071166399898154
Li 17.666940484083778 13.556564143061696 13.157975196679953
Li 9.201461941556078 13.838652942717511 17.233114252632117
Li 12.260396585018695 13.442996326312445 16.687839594862268
Li 15.340075575766612 15.828256058548051 13.45367183248815
Li 15.08393926819457 13.357199940918363 15.535469847312777
Li 10.582500331133717 16.03363565930863 15.459911774127203
Li 12.263066668160183 17.07110105567593 13.11479217089602
Li 13.579367297040625 16.306196190997504 16.007566695271446
