44
Energy = -68.04999189 eV
Li 16.346930323518134 14.562110499597104 16.96996999033406
Li 13.123750148563568 15.115130094310006 17.091262451061272
Li 16.677278379994956 12.57480360695314 14.420010206787996
Li 14.328328046845309 12.37045663474455 16.521797866648285
Li 17.051042737580186 15.531167618808283 13.973995189399526
Li 11.566630176496597 12.644350870723972 17.8936774971111
Li 14.565487189525392 14.49561665644757 14.687351142526746
Li 14.93110178431364 9.709019969867496 14.997779082766659
Li 12.297630013586778 16.392608911447226 14.290005945229435
Li 15.236736540970956 13.462953810006328 11.908670587881009
Li 11.892701323559276 10.687818076819765 15.287734382900712
Li 9.862988776989969 14.880857733001491 16.455566893016645
Li 13.840481671101386 11.871409485351409 13.609976003985768
Li 17.450258861689818 14.54621790765339 11.060414048641002
Li 11.655489785402834 13.445994066530359 15.140343225177729
Li 14.70905944601496 16.104352399298556 12.070805675351188
Li 14.879635620095977 7.253468134129331 13.113168763859068
Li 12.410298629823544 7.7083867026775685 15.057678493264616
Li 9.203801233701565 11.833825566309745 16.136995946900786
Li 15.89081534940664 10.421518652581202 12.105745354302833
Li 12.361404421713955 14.185792139556387 12.62416390635746
Li 13.001408440178617 9.215678254023532 12.846296740195887
Li 15.064448729556055 15.348708135799338 9.124738743991411
Li 10.008787867252384 9.366745025540949 13.42924268255044
Li 11.912437280568737 6.8219871790606845 12.139527017090298
Li 15.643038736552448 12.303642493649495 9.259670460370815
Li 13.492005743367857 11.208279918318079 10.713200256434884
Li 13.010120821848966 13.834204662967874 10.006880324738699
Li 14.14758553751606 8.427682033220442 10.358770293768082
Li 11.788734273249482 16.329416038479028 10.878614954785547
Li 11.325195657019032 11.609489003229385 12.27442011536477
Li 9.58746326724934 15.380324787296583 13.354742760469199
Li 7.238616708082635 14.096853239273218 14.860808366027966
Li 9.190029507114659 12.633114714139813 13.504728122856616
Li 11.172407535734362 9.323217844532024 10.429208447078722
Li 13.31554833211169 13.223900389656912 7.256061861793995
Li 13.064890709505912 10.381451159821493 8.005135394723546
Li 10.894463275278357 14.731616507704377 8.086160755586977
Li 11.009399524029131 12.021045940604662 9.144861450828627
Li 9.982923905658344 13.905055631574308 10.858087016103307
Li 7.222284039446556 13.886580451299308 11.676078018824178
Li 8.649677328137821 11.168423294509132 10.961870147859234
Li 10.482431403186661 12.030249576497765 6.4882455976942
Li 8.298001814802063 13.056275296050135 8.560484102713724
