40
Energy = -60.4207638 eV
Li 12.656364588548968 18.352175498490134 11.305190817255781
Li 9.70761716028169 17.224392409678206 11.446682837369927
Li 11.338272417269389 17.625743003815444 14.091554568031288
Li 11.57756458074699 16.29032761369536 9.11793113442407
Li 7.0757441073856056 15.465870832163858 11.774029002885195
Li 9.60616876600177 14.376682726687573 10.664089266432649
Li 14.58101144764578 15.86937665083265 10.40175220136443
Li 9.461010797386809 15.14959044397553 13.520307187275586
Li 14.42650194482182 16.663100315133956 13.494794758538827
Li 12.088743808796737 15.785042557610167 11.963256775285576
Li 12.185186688756177 14.936090039906672 14.619389146014903
Li 8.289955096860405 12.654553108058069 12.609310234245848
Li 12.405893666934992 13.752382076822048 10.085645010948333
Li 11.278112140989284 12.909412198684935 12.671489389261309
Li 12.962559673742724 12.125563538745409 14.918332870125537
Li 15.013978171804572 13.022947683222698 9.831817075677959
Li 14.722672480823594 14.447635396882514 15.413149981049632
Li 10.675923872692138 11.80525217180434 9.221861359987205
Li 10.332266552626766 13.415364649373487 15.999531647325275
Li 14.330622207375821 13.739242411377566 12.586210350046914
Li 13.124644334548078 11.170848878419722 11.139831939272943
Li 13.63201030391412 11.470324273490936 8.033784934842194
Li 17.002105130340325 13.406933871589542 14.416270671399062
Li 13.14928335537167 13.783747990194575 17.579859426011215
Li 10.235564497472167 10.351861663447531 11.665219025518264
Li 16.928926008754097 12.193869550380013 8.0047236447062
Li 17.19231540665302 12.60129527444057 11.33094339744221
Li 16.466297793312624 14.530229351876121 17.571910723353753
Li 12.428614429515964 9.685862168916456 13.503307436931268
Li 10.068204547904129 10.948092776058237 14.550362672693405
Li 12.41918924263122 9.043997348570427 9.661217784770109
Li 15.263821997314091 11.129413416675035 13.244367092731652
Li 15.635354887303002 10.290896346933462 9.940943568585984
Li 15.310829058499817 11.944454267740223 16.582998225173238
Li 12.077381016308722 10.857280141325674 17.10950833120276
Li 11.119350046431938 7.611494708702411 12.29513098350037
Li 14.327383830369635 8.471000952725694 11.965536968247445
Li 14.19623235200544 9.335607388916333 15.537653003080305
Li 11.023951967808873 8.311478377384262 15.433921812759381
Li 13.272298781728452 6.750174751577055 14.22840372312382
