48
Energy = -74.78221953 eV
Li 14.267884416547423 16.563262020885876 9.684850991307286
Li 14.329061471754965 14.128202661474658 7.462113112843188
Li 15.9135572797112 11.60461835265307 8.083415614146935
Li 15.841024030381446 14.074572338626465 10.311049731447568
Li 12.187152277387227 16.497564130265797 7.3208057103603545
Li 15.477694413655415 15.763557856988687 13.025248357396064
Li 17.50224817176724 13.311060347599943 13.096477408256375
Li 12.898771084674893 15.015633186113591 11.871468404666022
Li 16.42718582678091 11.152998226100323 11.090955097206757
Li 11.294705561448046 17.107415287189998 10.447971775992423
Li 11.339513585538926 13.406851439118832 6.888481158477839
Li 12.258792484134448 14.639241190514278 9.264579610534804
Li 12.88740133868412 10.906541616072888 7.549052562057478
Li 15.402450690694398 13.390995841700441 15.594177966798043
Li 13.783079650670372 12.245238290000783 9.870238894339042
Li 12.964259255394783 14.69517702363296 14.722315300494923
Li 14.77692640135799 13.023584651829077 12.815787814727596
Li 9.52307613266892 15.140657203616488 8.625191588463958
Li 15.982138379715977 10.69791924477668 14.174071537420101
Li 10.662141666482787 16.300394513683404 13.650353583818024
Li 14.496272243091406 9.148078433630715 9.430034748486653
Li 15.918020632354713 8.235680105672609 12.239143467292031
Li 12.038900105048 12.321707188557768 12.097802560563894
Li 12.209218542672387 12.991347865315602 17.003698075227014
Li 13.089784000712934 11.556714351868735 14.70136543651519
Li 11.773555663549372 9.985051471386948 10.205095753672195
Li 10.595512601846039 12.41452640648774 9.620395041546372
Li 13.987936034317851 10.245473465211829 12.112906723016408
Li 10.096027803671447 14.51071864526768 11.444663738001458
Li 10.558294462598546 13.37925174236463 14.34003117038866
Li 12.89859036638819 7.598378617833805 11.623516029610936
Li 9.55613644572657 14.766124261012276 16.377838019759807
Li 13.544515852497769 8.667647109553071 14.476376097185272
Li 11.157698192959684 9.713205411771929 12.974972596172709
Li 9.832876127306921 10.586197084782365 7.70529522959351
Li 8.01327252866925 14.480124748890578 13.44360711637404
Li 12.092542237226962 9.747937653458333 17.245502894128418
Li 9.639561189767466 11.899387541062344 17.936010108944835
Li 10.37998564405901 10.757545088504141 15.443089784680305
Li 7.882787991303677 12.882154201570996 10.18068641954822
Li 11.331710261518525 7.846160619377704 8.7408860192463
Li 9.183327076084376 11.791459433720249 12.56491323114434
Li 10.760151506858621 7.717926568677011 15.005950410139212
Li 7.9364139262210855 12.079424570765298 15.475207691154361
Li 10.008351508677055 7.378496480204872 11.910482256267295
Li 9.028809579000074 9.754181583077756 10.517410395552906
Li 8.843248147695899 9.172668011134283 17.032546649030937
Li 8.354004085700376 9.26317298065618 13.897425173671797
