40
Energy = -60.39069287 eV
Li 13.2301432141339 7.805573837269961 9.690527981918514
Li 11.393927859573104 12.115194473192872 9.772670873340031
Li 6.289866505205228 12.868221908836343 9.710535999463396
Li 14.112195524651648 16.322478088980663 11.526330510603456
Li 13.61680464456038 10.909096904571118 14.432255753468436
Li 8.469549646287108 8.438305664728066 9.63573566903881
Li 6.543840444901647 10.242538394368006 10.995847496423107
Li 9.837516604874764 16.90342180000354 11.607132607971096
Li 10.68982951452061 6.844885511488323 8.479721510494471
Li 11.72627951061399 14.764657462447362 11.197897223756431
Li 9.300607179049459 14.470764344057025 13.242634682939975
Li 13.037536075441512 8.045000908523773 6.723336228195505
Li 11.498976468480258 12.54959279566432 12.732028963042826
Li 8.594278139067018 8.849378896491913 12.855056224654033
Li 8.554428532620557 11.121680495795818 8.765504432783526
Li 6.869427553297143 15.656259870732136 11.642069770919573
Li 11.59065955995267 13.077736983291762 15.346817284821364
Li 15.589883502697957 9.009896871050229 11.088006342874671
Li 14.25865961091224 13.29762112173071 10.462872641815247
Li 15.95092965858274 11.680653884747192 12.545418732284901
Li 11.106970173637789 9.914195726954766 13.607655231527406
Li 9.135953163821352 11.413580650885486 11.572613070969483
Li 13.389215229072397 10.770168820579837 11.52805283997572
Li 11.897189987865557 15.821972788015861 13.759706002395436
Li 10.63482710730429 6.835679414335396 11.661761385064827
Li 8.916037138939 14.052394913528639 10.477729184267908
Li 6.882785315118685 12.815079010451592 12.617593374254612
Li 14.078651994712413 13.887790132162799 13.216176974074585
Li 10.99176207539512 9.354555521704532 10.858391003511292
Li 13.158848716536768 8.153572674800806 12.897109744980005
Li 16.683431711889167 14.381472134902207 11.486911371152624
Li 11.071847834208342 9.575269389352256 8.168866193637154
Li 13.895470154061886 10.375076803614277 8.73767732125761
Li 9.029832259681614 11.525753417737985 14.530212907604733
Li 8.783345542952206 8.672319275143483 6.697263201892775
Li 6.1082111316767795 9.842909060781075 8.064557515228099
Li 15.895841066790538 8.433110202992252 8.1545556306693
Li 16.507032311344606 11.456674450675454 9.675566320140389
Li 11.242482645751693 10.129666827159888 16.318169038813718
Li 10.674887531172919 7.465695830159899 14.72305210637487
