45
Energy = -69.65240854 eV
Li 15.60053113831924 8.422998085003076 10.117330972915028
Li 16.624125783135394 10.522682672611795 12.109124413181377
Li 15.071800745634233 12.711388938716846 12.169549498877956
Li 17.82568795338336 13.185674923753169 13.440718567428208
Li 15.075817222321705 11.73251397966401 9.486239318929616
Li 13.120907865954717 9.327153573964848 8.637299652023591
Li 14.863047384547743 8.254068435889899 13.32314619134601
Li 15.453557117522971 13.550323132165339 14.732581784968232
Li 13.921051586146286 10.90701033879844 13.950377725206744
Li 12.834173639923653 7.285855705540378 11.005350432234506
Li 16.608405909063183 14.81623479439659 11.141681292049041
Li 13.864843752982035 14.737907402992665 9.590239613867519
Li 12.685227940000932 13.572665179421758 14.11022744027964
Li 13.62374244660303 9.965048866736431 11.278390910248886
Li 12.630715098297273 12.782485924356246 11.019421179343395
Li 16.452805313074855 16.076120319688908 14.272557270209768
Li 11.826572463921735 12.160075032977302 8.63132521220529
Li 16.43131461278738 10.807064709494924 15.162017815364885
Li 17.546599825432594 13.537781362207594 16.47736089353966
Li 13.397781024017197 9.168278852218457 16.186397350023707
Li 11.79394618073744 8.723917674027506 13.59769492933831
Li 10.792117739701752 9.769900776136948 10.647351952932153
Li 14.032928702134265 12.088573932085593 16.66343747120066
Li 15.26513524797883 17.971185063527667 11.89377687460312
Li 10.669461068799173 15.166108063919344 9.412521343899826
Li 11.562336867134885 11.066854637812693 18.2833313316255
Li 9.637336098277764 12.668234999667106 11.00592032636058
Li 10.156439774414105 8.963574004775156 16.393980087561612
Li 9.017919493455906 10.369004474172034 13.712782194825477
Li 14.20418438387318 15.332251502935726 12.386893696358385
Li 11.377884107844368 11.191640094153472 15.542928126717127
Li 11.415010631468078 11.367114732229973 12.798522809280428
Li 14.879977433611238 14.838424826862395 17.199760870729985
Li 11.37585248014578 15.17768251462374 11.98797238270564
Li 14.556341524221276 19.034892514992002 14.5610901561313
Li 12.861136859714279 17.48496819314965 10.203606562425195
Li 13.545161407750935 16.07838110365412 15.022872218885707
Li 12.98629410932179 20.176573953200084 11.72970760410671
Li 10.282663900529878 17.948982854605443 11.427865929669663
Li 8.973223294290918 11.909291077275002 16.640464000452656
Li 9.756919042977687 13.33138057299362 14.018207054658676
Li 8.576961379042416 15.40602856223771 11.973479114547095
Li 12.646645696661174 17.77425593461164 12.961325275405763
Li 11.58707663531869 13.896034043739073 16.66973180953579
Li 10.556729289945489 16.16065140970328 14.465041813981319
