47
Energy = -73.039262 eV
Li 17.018560042058013 13.134420793406498 12.862344054939689
Li 14.801308097594525 14.686170600507022 11.492549356266947
Li 18.343689905397056 10.518524805491248 11.734667082373672
Li 16.22184015550549 12.165851552544595 10.022146234951169
Li 13.689176063866363 13.382787209678627 8.875748692526592
Li 14.972122254411005 15.70044071642402 14.337205732316798
Li 14.55160146528171 12.848801349173824 14.1203895640273
Li 11.019785418608771 14.236177527093755 7.611081783736764
Li 16.60088236736525 10.488956579906775 14.562139488334433
Li 12.915327415412623 17.17358177030547 12.0456461842096
Li 12.252007344780802 11.136233099988933 7.1678392161714335
Li 16.289858984974497 9.013327530068802 9.688074490041306
Li 11.704233942170188 14.674861962935276 10.703728387616708
Li 13.33786206602953 12.293381014352207 11.693024218768484
Li 12.909023825053245 14.158239100046028 16.348926300483512
Li 15.614425900971959 10.486495652191856 12.066149344953224
Li 16.803831813930486 8.019980009466902 12.623349353070454
Li 14.138899563006213 11.173033878068908 16.45008939669907
Li 12.395994396601406 14.79457829971539 13.441812800336411
Li 13.603280525843765 10.454049869295911 9.741905693476182
Li 12.105829964732937 17.013183398966653 15.132621097536083
Li 11.077415809601359 12.166287157825437 9.53415401135057
Li 9.053086756960708 11.637489205618085 7.6808413358203245
Li 13.360544650850136 8.030677196348204 8.48711117453618
Li 11.441003345727239 9.826324145806323 11.64870592296847
Li 10.04393609701798 14.604561303243383 14.960357341408125
Li 14.01558440737103 8.092550776129977 11.567475989716359
Li 10.17482185996593 16.750763280559656 9.8344949537759
Li 14.59986500934008 8.063088400074754 14.875796033689905
Li 13.37104576975877 10.12251250596099 13.750392896601507
Li 11.824732893775014 12.101403311075348 14.851241150284151
Li 9.019313910986089 14.604856396234833 12.055325157963106
Li 10.723467445558981 12.46783702755188 12.46207203506944
Li 8.682885069622387 14.158191811941666 9.417338954812124
Li 10.578583341279188 9.382216817605595 9.038901888895815
Li 10.008413706243935 16.9638462196896 12.907141680243637
Li 11.445901028150997 7.032357153287935 10.652621514797891
Li 8.662047720202512 11.430890620984826 10.898913333804153
Li 11.831065867579635 9.399270317550528 16.207176704757842
Li 8.946221547572746 8.516568557294905 11.70051422847951
Li 11.636000259447984 7.673330753546856 13.644227403111357
Li 9.988285077066044 11.986031221501495 16.79146439386835
Li 7.387168984911099 16.56742379914127 11.03194655223213
Li 9.851555979909307 10.119716386115147 14.12991869358798
Li 6.455009588713611 13.660044442187807 11.533185525201262
Li 8.172237968581404 12.56189934256613 13.951660364117407
Li 7.291698428884358 15.6161482677404 13.994174135749043
