41
Energy = -61.47690525 eV
Li 17.911549248260684 12.430293137015093 13.001810550334117
Li 15.557116922217476 13.718206598797483 14.379801441251407
Li 15.265257066207134 12.464753635515226 17.123894091770897
Li 17.759052559942447 12.39416184231755 9.918821354276092
Li 15.73965815238014 10.89958020772733 14.559189994238489
Li 15.540757297701779 13.568666776945983 11.42559889276429
Li 12.867532383349243 13.654695743717799 15.599814840013575
Li 13.269851572706203 15.027403372690845 12.834929754023507
Li 12.361958458349518 12.28143038099861 18.22099582958116
Li 15.81864267885625 10.741979819198622 11.596973751435328
Li 13.404193429086389 12.079605798463097 13.019210625671258
Li 13.025841729905828 10.83706304111834 15.773769810180697
Li 15.359398070791796 13.671773117026975 8.391790857186137
Li 13.04671508098788 15.034604987755563 9.821032553188191
Li 9.994719924819677 13.469305719881568 16.734531893178147
Li 13.569065923733953 9.211456431371115 13.217491142348997
Li 15.538755313216653 10.773883326707962 8.553430645989417
Li 10.441902354112168 15.001890815589338 13.960508643498683
Li 10.934317613175429 16.383849645095736 11.355661864572658
Li 13.318675229313389 11.976342719619657 9.993251355044453
Li 10.620966800197971 12.010196579308564 14.282249022690468
Li 7.751923709656234 14.837392543029987 15.11396246536344
Li 11.154811599010136 13.36918099116155 11.560252345559134
Li 10.747442579403408 9.057407464499127 14.342857622297428
Li 10.159220503405232 10.536121010144887 16.92603065335001
Li 13.398709035002618 8.98573960343871 10.225527966917355
Li 13.198328707705906 12.09598757254099 7.0948364404074535
Li 11.207355320088382 10.330365439869365 11.75019125893978
Li 8.141787740043116 16.49607710729461 12.42235456452802
Li 13.361175597611034 9.041921157394153 7.297282355573609
Li 10.738265135808994 16.630302248082987 8.374253044689048
Li 11.39695031125022 7.381076425089347 11.87385675109436
Li 11.008505024116024 13.511087057253 8.569765924451447
Li 8.54750359759356 10.263264592250751 12.831042843821953
Li 7.938540275430352 11.790299320369224 15.371759465619393
Li 8.38747933693406 13.425285090425467 12.638610681849185
Li 11.189646876477791 10.260604774996937 8.757768614288606
Li 8.904415199949876 14.861174918414607 10.06735366940894
Li 11.346941252206861 7.233906753235528 8.816526006380206
Li 9.161970985550683 8.675178951645881 10.340288306689674
Li 9.060538527020407 11.763980002190735 10.223666195021115
