43
Energy = -66.31123093 eV
Li 15.165992298448229 17.30419050969171 11.966758192581459
Li 16.066080726616985 15.351267451053756 9.879191709730302
Li 12.889973100759939 16.291946070112942 9.70916037893171
Li 12.242988442455584 17.1759366698655 12.642441141727202
Li 14.09836889093842 15.841992284440904 14.539110103276919
Li 16.661154836393496 14.776846920662239 13.089556263894075
Li 13.95776768995205 14.752598310997923 11.693394646520769
Li 13.887811946274708 13.537727305361924 8.86776026778688
Li 16.064971500982434 12.511360394397496 11.041115108176449
Li 12.689501352658345 13.63779805804766 15.873002105887528
Li 10.063528616064634 15.811469327616944 11.02470367803536
Li 11.374682298472678 14.596996347968616 13.411444728689053
Li 10.770320220356489 14.218940156189971 8.265962761286355
Li 11.511221600654629 13.386481872954176 10.786938077376817
Li 15.8811730595532 13.635276311595137 15.946525565666324
Li 8.974336918852078 11.493165095882576 8.174581593855642
Li 14.519423435389694 12.930701896683992 13.662694467231237
Li 10.947347487822588 16.402173631476423 15.441622557842722
Li 11.968038700191613 11.349682693320405 8.337042512498796
Li 13.576179489227503 11.439360176796756 10.967094447223706
Li 16.672831060685954 11.233880499982424 13.907296427659169
Li 8.672101955595988 13.22425417114981 10.513001371891802
Li 8.329572075022869 14.646065379675584 13.40786026585678
Li 15.015855901406962 10.678720548916136 8.611752157234609
Li 9.809600602768167 13.558352645669606 15.666297409825283
Li 14.102738504567142 10.877753583926669 15.81810571924683
Li 10.375045062499808 10.653623796982732 10.6159448128144
Li 12.104396032586608 11.95121582401172 13.291784097417068
Li 14.120986957355914 9.901926527101432 13.293747443203111
Li 15.845868467135137 9.314112070445274 11.351756531548352
Li 9.40437372779631 12.086916055550104 13.051344945227111
Li 10.246970866709505 8.76570248317255 8.404703042062431
Li 6.762259867030943 11.661555079347718 12.241750907131294
Li 15.789208352122978 8.233743952913063 14.570825680773785
Li 7.941280780580939 9.52071666766264 10.354270528812492
Li 7.573074583051612 11.7272681838946 15.146332750836308
Li 12.855416751405741 8.9460926062193 10.109230634908087
Li 12.613519598090372 8.185992172877485 15.117174957118868
Li 10.813566350971746 10.773884283358909 15.415769549517092
Li 11.500187291909148 9.351378316313564 12.763878459383525
Li 10.278379380538848 7.457756508732179 11.189600689979896
Li 13.547623423226211 7.213947896902885 12.424620715564357
Li 8.644067268539125 9.399325594444347 13.33301675505228
