40
Energy = -59.81431018 eV
Li 15.509718203199306 17.564540909625066 11.49354155025937
Li 12.79210434155319 18.3264519201121 11.857943938559858
Li 13.420327912333676 16.89066831097469 9.274834121184101
Li 15.590483057754263 15.178975666208995 13.150996660690558
Li 15.172142219078697 14.776737183499073 10.19888347353426
Li 10.542770587099419 17.3168768710981 10.401382169265675
Li 13.883420601277617 17.247804775038244 14.418165156816379
Li 12.85121733436103 15.373572915442587 12.086296419088562
Li 13.901340051908647 13.631520396336505 7.768920113052073
Li 10.786647294800213 17.101128693587697 13.709174457332352
Li 17.242963750061104 13.051488422747857 14.547440185694137
Li 16.229258758648857 12.077876257108244 9.180703514460705
Li 15.788275723424086 12.470865345773065 11.999063159589415
Li 11.622046237649096 14.589739494184418 9.418511860732933
Li 15.34026894431536 14.950705926399378 16.007835461404078
Li 9.945066930477804 14.921007809717002 11.896102505471074
Li 12.21357582582586 14.89531306340352 15.139394338656954
Li 13.987099527453676 10.400231717800828 8.203652992374236
Li 13.396529106717766 12.317149425108795 10.34203138794188
Li 14.179271648251738 12.907663660964985 14.273606396018307
Li 10.984116317829981 12.771445894097265 13.52896341120252
Li 13.248606848620998 13.848117731771854 17.70207322712645
Li 11.373256545907399 11.778287127436695 8.124066363654002
Li 10.297967032047291 13.694916920593238 17.078606742121362
Li 9.065712198943453 14.649516088849888 14.618362423727401
Li 14.97870798112474 9.779142216154165 10.998803344983223
Li 10.490343826664008 12.219579081259612 10.81337070142108
Li 15.793989340490215 10.340000587996673 13.966284656081385
Li 15.329829301881498 11.88187299051033 16.620278320458624
Li 8.050651666025251 12.693649588947128 12.525927945969855
Li 12.818656494213052 10.481927083039727 13.038821923200699
Li 12.163296062140647 11.714832950169887 16.00652537956874
Li 9.104846805708297 11.55164647307242 15.20087247943676
Li 11.989016221154701 9.565874434624204 10.38578202777056
Li 9.725372376611238 10.099011551704324 12.563945820782012
Li 14.054083367953178 7.864254454358302 13.216989837170656
Li 13.840997015183413 9.205073578688308 15.87164146752977
Li 11.02073105783232 9.081452918948374 14.997908329984213
Li 11.284440518337137 7.483684036297786 12.580446966009822
Li 12.42064650165687 6.527300411029602 15.293989065021494
