45
Energy = -69.9928004 eV
Li 13.768476160633616 13.270865419744778 8.874437934186131
Li 15.67283702228195 10.70882814752668 8.50957264475513
Li 10.930650553936998 14.007739082818821 8.297015294086165
Li 12.45878774821168 10.24037023293048 8.440895669035728
Li 16.0413935236875 12.952201967169268 10.69928831798304
Li 14.622735194061034 8.118119958895134 10.275892979823995
Li 14.006196515067899 10.868577013591322 10.738867788632504
Li 16.417401974197546 7.256800061968166 12.84981165318041
Li 15.054872485560592 15.753259686980023 10.589911340250968
Li 16.705753055759065 10.093949651513611 11.535813488072277
Li 13.124862749462368 13.773817136604592 11.687061168105704
Li 14.899551537015377 11.97696063222828 13.25883606339479
Li 8.914693541316154 16.2767942312768 9.457234339745009
Li 13.470475886500939 6.5017741961109 12.820636636111779
Li 12.12393662348817 11.129539973193149 13.125306474763807
Li 9.341408948970054 9.920005215552155 10.100479383314315
Li 11.392186899656494 12.015746419700855 10.31680430523578
Li 13.763979023672935 17.949347518809926 12.561803877915208
Li 12.279666486918673 16.19406001489707 9.95870919669717
Li 14.367023470722494 9.051657869873138 13.130012244522074
Li 11.857001638937138 8.935465470355437 11.446080251948505
Li 14.861283720156749 7.578264756695735 15.452130570312388
Li 10.616154088520762 17.8518084617892 11.741030628330352
Li 9.297888170861924 11.97541724907776 11.960621088537899
Li 10.751683103188832 13.52597132144043 13.5063158739372
Li 13.099283799413211 13.494702803448238 14.915785879222089
Li 8.46570913991014 12.786930588163184 9.383152144963777
Li 11.992939575811514 8.565741198455743 14.713754791506775
Li 15.161109155675685 14.972134990668128 13.380316046951949
Li 10.925243355520475 11.59561158827951 15.771128779022261
Li 17.46035810380834 12.821831567234057 13.325669464094382
Li 12.218560051336661 15.928740559054285 13.277702388845729
Li 10.295355487610665 14.663216792439142 11.0509324333097
Li 6.855484830671693 10.975911887362855 11.908546903248505
Li 16.593823887831206 10.032069975285612 14.65666641089224
Li 9.44045189050042 9.80574717558117 13.491654430532018
Li 11.395838558730425 18.107070105217137 14.737325993238453
Li 15.669916185279181 13.212289039568233 15.949715212054587
Li 13.853053207005544 10.699908767758359 15.798730244122595
Li 8.240665461529177 12.722801280659098 14.44835917438105
Li 13.023703630931378 13.295147541164647 17.65216512589775
Li 7.605667348696716 14.269292008526168 11.81369764197031
Li 10.89876033336601 14.985114721442239 15.98999463756436
Li 9.286934267116216 15.999484050765 13.55260472144104
Li 13.734055912142468 16.093489444235455 15.854222890293295
