48
Energy = -74.55736277 eV
Li 16.83447947112052 11.061186197342398 10.484369035240187
Li 16.90417280944623 10.190755141089527 13.611903280653616
Li 14.68103763060172 9.25335763440983 8.806516575446233
Li 17.81615489550968 13.089748265832045 12.698412586665636
Li 15.646605839153725 12.11075401933876 7.6606430228145905
Li 14.593267287020648 9.61290964542193 11.830945919443893
Li 13.773955075571322 7.103551572129927 11.01977369127624
Li 16.008395578809193 12.744556901706748 15.263573970964691
Li 12.589235933067052 11.261259058257234 7.520438234808818
Li 15.76483798091124 14.045927362457807 10.243558747502345
Li 13.91764681348937 10.471414661480855 14.675887199150313
Li 15.231694874661894 12.310000772306063 12.573372537948813
Li 12.057205179086797 9.614947041711966 10.235541751955388
Li 14.474622068436894 7.749645117884466 14.058714477471378
Li 14.051444056317681 11.786037537779631 9.883228869839598
Li 10.837334443279236 6.92565537688714 10.525564884791823
Li 12.154835449398512 5.977612041234404 13.351986629550217
Li 15.107300569505513 15.163628268615728 13.142557509112208
Li 13.185325405204857 14.132902100564559 8.353058618012293
Li 11.639219513705486 8.721063629994207 12.916928648161454
Li 12.500624803601994 11.566645683690084 12.358707549761053
Li 13.309122967431406 13.401260408928755 14.545044465790937
Li 13.618070206304036 16.604657145820113 10.34218991949586
Li 9.989534290939101 9.747160204122604 8.37908002831076
Li 14.243644866306685 15.103657276549884 16.383121738905427
Li 12.879340094280584 14.168578689579787 11.373151632612485
Li 11.014251632428318 12.392686029136637 9.79793619820302
Li 13.332094896932034 12.152443430721924 17.0742351971764
Li 11.658760564010242 8.252784241612535 15.621200655983955
Li 9.875600999998863 12.876833122884916 7.338144404924465
Li 10.521102010996051 15.319344988896711 9.089337795720974
Li 9.43144258533715 6.9558576982212585 13.43359350997268
Li 8.95316699507079 9.081806230376719 11.177359504553353
Li 11.13855808603463 11.396946113129824 15.015987200932551
Li 10.952813361798851 16.42952644577145 11.648185182722584
Li 8.146740026380591 11.742346272977024 9.666774150178771
Li 12.433394250325744 16.239306688370494 14.099034469313423
Li 10.850334842124699 13.924315886994902 13.336081634768465
Li 11.054665457737293 14.330827485609333 16.14047528171791
Li 9.779353973538063 11.410427473134568 12.286082771989783
Li 8.985093331686988 14.085676756000124 11.319296414274522
Li 8.817950447968851 9.724618632219654 14.3198336334896
Li 7.446049992103791 14.502987365167147 9.005042152970022
Li 8.076093755387435 16.728477089292845 10.903481520677706
Li 8.945276303376495 15.916088331728306 13.846941009873829
Li 6.96413702998016 11.348451840175931 12.335606498646793
Li 8.398771953802695 12.9412177729836 14.45166162045981
Li 6.451433756021331 14.400260327277865 12.055938646747856
