41
Energy = -63.29380042 eV
Li 15.072867789287978 7.924642209204823 14.70574404780891
Li 15.237687893236158 8.772754704476927 11.630543575836713
Li 8.634572162783263 11.655012432128137 11.85869631114184
Li 12.388879441176163 7.804833968743178 12.62583746842199
Li 12.974049593466185 10.16604771464027 10.730693604764749
Li 12.257609701368272 8.670653854159427 15.78758753720607
Li 13.556566680475807 9.94452251123638 13.761502307831224
Li 14.720167680566828 12.051827294421214 11.537733969896076
Li 13.124016611631045 7.820417597640505 9.427494544043132
Li 11.867437342486992 10.439791061927124 8.070426530835977
Li 11.67945922315232 11.647244444430314 12.698672751339615
Li 9.965331935702316 13.714966968130467 13.139563303317088
Li 10.9561702355902 12.247664876439257 10.086402115718885
Li 15.133532569085572 10.317461996262065 8.972356374855176
Li 10.146885222200932 9.755484305419351 13.841868465346847
Li 10.352790423299865 9.386966599442273 10.607388115012885
Li 8.716663742419271 11.532092590319127 8.719520608974879
Li 11.614277969046533 11.83024515664304 15.59566113555974
Li 14.651649561771904 10.792874267600535 16.282307955725056
Li 16.29047040693221 10.865466342256093 13.637870258426702
Li 12.532477559355865 14.088187222084107 11.64687893964885
Li 13.992682102950688 12.652333163890331 14.249021078623759
Li 10.75081520167605 14.46671966561834 16.691630119870883
Li 10.863925668986942 13.469488293882169 7.592784996211049
Li 12.250923032039093 14.803746749558542 14.35832179841656
Li 8.601030305332094 12.44574364228305 15.063912417941383
Li 13.509740575157924 12.951362224879887 9.057665240499487
Li 17.273642965974428 13.421265419361973 11.792153370332121
Li 9.26964762011615 14.343086874780344 10.300480627795004
Li 13.790030912317969 13.927038297615416 16.72519279237431
Li 16.559664746788354 13.689349368665527 14.942203563923371
Li 12.018990558983415 15.661976120274273 9.573796302461872
Li 16.88315362837343 16.563526203822647 12.685867130812085
Li 15.193752493811072 15.253413923257416 10.22738740779516
Li 10.445333945997595 16.343382207364048 12.35076699795075
Li 13.504491379175382 16.914358714108506 12.354892739931515
Li 11.63767930477263 17.200973963142733 15.360963582627523
Li 15.039867396114936 14.646367234374575 12.858640268029772
Li 7.266063799597094 14.309302149159416 12.656564779541233
Li 8.882115098639844 15.670335518816355 14.844744249750738
Li 14.662253122884133 16.28721264048611 15.10970373857253
