40
Energy = -61.71192551 eV
Li 9.506961889687958 11.325822613184522 15.64964772986037
Li 15.085356894991683 7.634966853803638 12.107566434848902
Li 13.228569674760026 10.988128866258702 9.145162550609058
Li 15.341440749775607 13.132549827686203 13.244061891521667
Li 10.47367554944192 11.613791023178866 7.9255443295569625
Li 9.194786021829378 11.704070773551292 12.716773796978012
Li 15.607309122131806 10.960738595477846 7.807049138498084
Li 14.292390684096286 10.262950394455302 13.912907499515105
Li 12.358871309139422 6.494021989901334 11.040352272261712
Li 7.4857662804813625 9.794421994353785 13.48841255376179
Li 11.09324130377916 8.766638449309239 9.095126318430042
Li 8.890313602947069 13.354729604741657 9.933499949899012
Li 8.862660132923487 13.896652925385482 14.540713032696877
Li 8.096020862422916 10.343095368737362 10.291797367607373
Li 9.84420682928164 8.359039664712734 15.086438897891906
Li 12.921941499164925 9.899140651467265 6.689085742679281
Li 8.302573474479212 15.463578164034187 12.048630316769492
Li 9.962650352224273 8.43316874492196 11.973676780728606
Li 15.472880142513457 10.587134858890805 11.06598811703827
Li 13.692002000398215 15.168772986614055 14.991118078741476
Li 10.79231003225789 16.20165277425683 10.451803705302058
Li 10.539053205272218 14.858509714231493 7.627945590219591
Li 10.84318384070348 11.100148102527553 10.684553315318835
Li 12.193221797147718 10.201532001398038 16.289847684508683
Li 11.301431338587646 13.85090588872891 16.730864090116704
Li 11.988467082742002 12.912376647767603 14.377041278256232
Li 13.22114140214394 13.05073854810935 7.140765694499922
Li 13.346522240618613 15.798669906690273 8.720622602016189
Li 14.256776159885302 8.292828281735645 9.097702653713968
Li 10.633738575409406 13.912907920216737 12.149486629504082
Li 14.885584682301033 13.332290303997814 9.923473821280123
Li 14.203470262902721 12.51451611122939 16.107035612579967
Li 11.340960205856788 10.263492724339065 13.65469793054312
Li 13.302044116639793 15.093364075478165 11.911261218887091
Li 11.918124625164523 13.62655997670467 9.623895222140197
Li 6.7360044625356545 12.654525645324025 12.20510980544712
Li 12.882123352700685 9.138952889631392 11.4695619050642
Li 13.067679602544159 12.089192474956269 11.898430704943245
Li 10.930515469238058 15.982483108746557 13.938823158083999
Li 12.574790227021825 7.671001166268994 13.953529541443714
