47
Energy = -72.95087166 eV
Li 10.705575226040764 12.733938079510542 7.101754119934231
Li 13.96561125159808 13.815192109036158 7.753032698516771
Li 13.287760705743816 10.96838999767773 6.466758511004999
Li 14.380220672153186 16.19325040815671 9.81003495711327
Li 10.726815056672185 9.777987660257796 8.076665919762316
Li 8.020527871013842 11.201961240600394 8.502410511592837
Li 15.74818599238934 11.044901763563766 8.49324249349087
Li 8.129309121948236 13.95816572359717 9.52235402193566
Li 11.316005013426322 15.00156661492357 9.05699259962078
Li 11.945098405960874 16.59497551449437 11.80196634646389
Li 15.699742132715008 13.407713311437831 10.437754947951671
Li 10.350012539598527 12.18599995798325 9.790522208460938
Li 12.907216471107173 11.722877905574679 9.076640754241074
Li 14.686193510215768 15.36887267422197 12.790288708541734
Li 11.457617172474313 9.57216843845017 10.833502777299355
Li 17.168313334240736 13.91573735069002 13.124203743800809
Li 13.542745882015607 8.79913556705817 8.742402276254074
Li 8.657323220747655 9.179095230756669 10.5764952469587
Li 10.120785832303243 14.382739921021386 11.70795216900523
Li 6.033189243415243 11.318528497223378 11.000054418231894
Li 13.090562224221685 14.000792120653857 10.904007481320859
Li 14.41138126935404 10.479771017034068 11.067667781106543
Li 17.217113893776016 11.165933023434134 11.643124769656627
Li 16.261853270567375 8.532334974526913 10.271127102233981
Li 10.904637434533683 7.081163545218824 9.673403422581183
Li 17.016804072787462 11.559685782424143 14.828545522952432
Li 12.206476322129099 14.41382503829161 13.918029682194678
Li 14.743195980474301 13.72822157585473 15.64193149940489
Li 14.7254042590674 12.281368722932559 13.302204757474545
Li 9.609692400961784 16.012838465162577 14.136466912158168
Li 7.615799576702709 9.120410743153602 13.370958090703972
Li 7.244621355834606 14.369870025797299 12.56700666661077
Li 8.508410072113248 11.797906421159059 11.732950201905547
Li 13.522326875417978 7.594451124312541 11.49285207816689
Li 11.869040363243222 11.991930500064417 12.209425424172414
Li 12.009811045963646 11.875617994378882 15.248744915326284
Li 10.487221724645186 7.694974395990512 12.758977160582731
Li 15.775482588718976 9.156515400621105 13.326112693707456
Li 9.498089302300409 13.182885662803866 14.171957461934449
Li 14.420145358706293 10.433286396914857 15.879027073751901
Li 7.621625060975937 14.253687377869385 15.807409546399333
Li 12.905603369293548 9.608080613070356 13.519472960612516
Li 10.694950309668814 14.197239265963558 16.56946040284153
Li 6.812619062589515 11.874947711808323 14.059001353800182
Li 10.01099247711773 10.39217742518763 13.572813579775232
Li 11.149525105689229 8.9664435120069 15.745626460361029
Li 9.007986691841642 11.323558684451717 16.19307520715663
