49
Energy = -76.42144879 eV
Li 16.170246547217435 10.455043857029768 15.239752469093265
Li 14.076512515612558 9.000365833380739 17.44749153973938
Li 14.610976723954957 12.088296675977821 17.49080312792102
Li 14.724963287155532 15.095255801740667 16.93599976885018
Li 12.309174781793626 14.03906493951856 18.635833357048476
Li 16.63925471523876 12.46316832869969 12.00264977648752
Li 14.111056714995035 7.938919040826999 14.530291127364796
Li 11.69635931434898 11.131154758517157 17.56915192801434
Li 16.26563111048788 15.536041806173639 13.636968201164427
Li 14.722860114319221 10.34817959196842 12.622881969576797
Li 14.956828188834992 13.120494243608587 14.417653394655156
Li 11.384623609407432 8.579818458175344 15.794219644008656
Li 13.39971031627331 10.646442564975242 15.33719406771429
Li 11.269076471352037 16.065024398957647 16.47240711768163
Li 12.574535786678041 13.509392865220239 15.944757322458356
Li 14.423880709633815 17.604827633948865 11.83271612113944
Li 14.19879298351156 12.72689619118262 10.666197500410476
Li 15.416931556736348 10.126465094430909 9.539466589010313
Li 13.509670746452096 16.149923482441633 14.56025194373471
Li 9.710555461547507 13.463922138647717 16.535246124616403
Li 16.121005907884378 15.102027166406051 10.604490645668761
Li 13.708259134532035 7.772882105813556 11.31322543736598
Li 12.661410395885564 12.308698351401064 13.008065996035585
Li 10.640241572261003 11.435609318216299 14.685071174773068
Li 11.431295863538159 6.637515831486438 13.351573720725979
Li 10.924942336580477 14.46149423700051 13.832336018449164
Li 13.709614241565165 14.998707345934173 12.184219889049908
Li 12.785894360479448 10.368280765025052 10.188386865855918
Li 8.620596564268666 15.702633466048825 14.60823296397068
Li 12.04907246780696 9.339893210074688 13.048984400823345
Li 15.380123586995149 13.035889577923697 8.275103376965557
Li 9.25033633126258 9.16829407092603 13.397212224399414
Li 11.06498068947119 17.175695427995624 13.368469746897155
Li 8.639135824723281 12.846523809564953 12.92433388396825
Li 11.725381570895271 16.83288786272137 10.59566191917509
Li 12.78683196921488 8.27097845815334 8.357506716144677
Li 13.659525273308539 15.434176249900862 9.104920213487588
Li 10.508615903839626 11.318437717300416 11.45271335475561
Li 12.13776396818771 12.94969635327974 8.680687275294492
Li 10.640409483078601 8.303896912315427 10.762830595128529
Li 8.091505458009511 10.37138441521868 10.714397825604516
Li 11.29938087758852 14.046820603774277 11.023940185786424
Li 9.03411452134452 15.572544712594702 11.42508618766976
Li 13.267817966039022 11.024124286041298 7.150806971022352
Li 10.462816702433026 10.414300267689672 8.526658230193563
Li 13.096041523290253 14.228939989711222 6.3574150527287685
Li 10.67329686731187 15.338151253537633 8.169749917014283
Li 9.126389392096574 13.000746867846177 9.445614142439043
Li 10.517407593994257 12.626215476380334 6.429598760564487
