47
Energy = -73.45331831 eV
Li 14.46845443251631 12.801574661244958 7.629992627798304
Li 11.605805940342629 11.993996573415675 8.271961102508449
Li 13.9268979296499 9.826531935272042 9.571811589910393
Li 11.974260358157848 14.315987090039988 6.160286348779542
Li 9.734565433916389 14.498779611457016 8.43265571325295
Li 12.502217240815764 8.21922454296854 11.914711852347338
Li 16.037965770888544 8.600447100839451 12.094868620512928
Li 12.637897838075878 14.898649717455118 8.795742735879164
Li 13.639956488707067 12.676711267697366 10.359171831292807
Li 10.697678164565383 8.886440870028215 9.2791057694853
Li 8.99458707702949 11.60634296989802 10.138959012232014
Li 9.473172390554367 9.357787320227322 12.310506956091439
Li 10.67355813134381 16.51225591809036 10.706129053204327
Li 14.333541133855272 10.603223109281666 12.46925433130388
Li 11.26550081710386 17.02772119996985 7.685577326555212
Li 15.478111215396574 14.891045293551324 9.97353844493761
Li 16.33419645271536 11.709284287623673 10.501004445166018
Li 9.119259139540828 10.6480701354139 15.353279592221988
Li 11.609791610316302 10.801637760545734 11.01613213777134
Li 7.201888361939461 11.6502233576295 12.958296281477294
Li 11.692948823350536 10.3247999395282 13.892396860493022
Li 10.937092318042318 13.623839813214126 10.86593363331225
Li 8.323200720907364 14.387491928500442 11.665396945078498
Li 14.3477017052313 11.667476388172735 15.207322564838073
Li 10.774797845173094 7.89885739778375 14.878764411044562
Li 13.49419287738248 17.530668555736817 10.185050255922818
Li 8.537491175108755 13.68116758262326 15.217339760633042
Li 13.748110195744854 8.650799371468265 14.740725568980068
Li 15.207504573511264 13.520872727967143 12.608330682798671
Li 10.704202510296334 15.05378128708644 13.567876898396184
Li 9.779791143914375 12.254990583575006 13.026227288693644
Li 16.394878224984378 9.39873602539308 15.3304090814131
Li 12.440320180775375 17.50795313300211 13.338982450070759
Li 16.987076716547513 11.565470882879051 13.525043420236036
Li 11.792305818871013 10.251294843328582 16.71149027130759
Li 12.59678112701868 12.729732979078824 13.050415195878049
Li 13.0676819310482 15.297365452242571 11.757812700374336
Li 17.779517687482667 14.27004820992749 12.159991938614471
Li 14.486012831517076 9.93852455613786 17.66097545775789
Li 16.524697578180408 11.961976563595131 16.949422939781755
Li 10.163128348586703 12.491889468722224 18.038326314358923
Li 11.297332358605551 12.802396958584882 15.547109803296406
Li 15.438884166945986 16.42914099802489 12.740168579820358
Li 16.331780590750977 14.247178196346939 14.991601616058015
Li 11.019060414167477 15.324904592646599 16.662502771511274
Li 13.437536831295708 14.834749388304802 14.81151063707938
Li 13.331235428737553 12.969216388122273 17.55625008758624
