40
Energy = -61.40231067 eV
Li 15.859255973124952 12.269864105513369 10.588496179950477
Li 16.059563005213036 14.194270270581786 12.930376988383928
Li 15.038587325066596 9.954955462352657 8.660499264993929
Li 13.88726585655765 10.116713199564115 11.449954095790764
Li 14.162980540112256 14.890617508913117 10.063434825254499
Li 15.28190504721136 11.233059361745749 13.789167081217848
Li 15.019894475739333 13.0992277440703 7.6722395328472075
Li 13.691291948609756 13.598132239960064 15.039988271698771
Li 13.579374931278657 8.54130156254909 13.873036489805239
Li 13.683970278142843 15.977096845212998 12.90918541098066
Li 13.215684600977514 12.083571523955388 9.401090430842551
Li 12.250059332173775 9.25045014309128 9.157337319619081
Li 13.907099270545048 7.307442870257907 10.723920678269515
Li 13.566547364195035 13.165470654840497 12.200360592746938
Li 12.760356509492398 11.11777076353733 6.741586557517119
Li 11.128589459824461 10.991839968511885 11.282613884419526
Li 11.373710332805487 16.307771320495476 10.777271956439696
Li 13.26365575446663 10.54204638857299 16.245984478090048
Li 10.791129072750012 12.509706236432905 15.863809214835955
Li 11.922037508468268 14.233777880049391 8.002224243073867
Li 11.34376287685173 8.283124510934051 11.929636763377916
Li 10.828218029396755 6.721164277151169 9.392289875346682
Li 10.63737804337843 9.379811128810557 14.80166160063352
Li 12.26845967240171 11.288154700760307 13.766352174081543
Li 10.270085862426267 8.837806246405709 7.061254702656611
Li 9.327819630339015 9.183155121693266 9.779545268423469
Li 10.47224670716514 11.561597530215321 8.438177287975405
Li 8.497297923327018 7.10696965429775 11.556182868048811
Li 11.096064863595496 13.60688462861937 10.764592906896612
Li 11.162341958477258 14.627080689045842 13.525519697756755
Li 9.532221055112858 12.421738404618802 13.258918858608638
Li 8.738075850215658 9.872644985186485 12.590517627844372
Li 7.774021380881025 7.380217135968536 8.514758964046873
Li 8.104097131978786 11.142098201263837 15.297207462476528
Li 7.654591725343532 10.41800013637579 7.833494386709174
Li 8.279136958996583 14.28289649558067 14.851211524697426
Li 8.443651285083602 12.023262255923955 10.422911809239341
Li 6.598878146806626 9.508602397237867 10.62304117223145
Li 8.61249122869306 14.791545303608366 11.747403014341456
Li 6.710406578671609 12.282776157589447 12.822178883984245
