44
Energy = -68.02717971 eV
Li 15.592272755834378 13.638454124071153 16.03860739750936
Li 12.60137219846919 14.494964151436085 16.34543941341762
Li 9.741867229562807 12.054967262909475 16.240195297303178
Li 11.082242855536231 13.457740413906743 14.149267185089165
Li 10.07364725605311 10.858377476579937 13.501149740892018
Li 13.96556421747725 13.105718358500194 13.923632785176721
Li 15.67033018382544 10.85377525886439 14.615904172503075
Li 12.821396172455636 11.541070030098352 16.07479059147925
Li 12.934501160322752 10.086996841206123 13.722714636229068
Li 10.448959119138417 8.954613187241435 15.325883449899761
Li 15.043826376900068 8.553409651627652 12.473074844500772
Li 11.692110845060714 8.05838067082876 12.305686482455023
Li 9.56162570804462 15.194628726574763 15.757433403415689
Li 5.331415368880797 12.601547620258374 13.455674903850523
Li 16.862759471797787 13.194182059491355 13.089984406817855
Li 12.026194323087005 16.29944726820156 14.126958073036835
Li 14.85728897541782 15.658206666176834 13.515427357084738
Li 7.464282507396313 10.44544770364013 14.682657306485947
Li 8.081347723090643 13.235595960640092 13.901515489259214
Li 12.305148046478166 14.68140305055788 11.796761726277987
Li 8.733685389709631 8.489474179330319 12.529538852175172
Li 15.190978153304808 11.31173866756955 11.678494167069653
Li 12.431354022369392 11.898469804526833 11.925708537428292
Li 13.067214713810776 17.12159354586617 11.133710767707708
Li 7.480147522714464 11.257683338734456 11.786874277334563
Li 13.90632079187273 7.008339382391497 10.111056909586535
Li 17.727561481865994 10.252016888791411 12.238134193239857
Li 7.159748352985427 14.168092113704597 11.188015675815343
Li 10.9761472344344 7.792820723319913 9.3962008172156
Li 13.079021808254641 9.644506529562396 10.317785697198904
Li 9.540872999576628 15.689657231585196 12.619959684007846
Li 14.824069720632904 14.050661368961679 10.962617362597888
Li 13.750024981456338 8.82046940603835 7.731433913347483
Li 10.312923946353544 15.221610848161466 9.588811244323916
Li 10.209515471222616 10.317377946198668 10.749496776781589
Li 11.834438032580803 12.778949289051983 9.499136694126527
Li 9.798531073862767 13.06119666967095 11.541964203781982
Li 16.07100616057552 9.35023228287028 9.701282034643715
Li 11.308308079242709 10.564956986629825 8.006635011573431
Li 17.251281107575906 12.313708203275231 10.020944458155267
Li 14.306409719697381 11.8922955319997 8.677915123481448
Li 13.290293426208029 15.088937311659693 8.713554604205186
Li 8.931455766925772 12.440590736491892 8.931326376345249
Li 11.416807717799772 13.424943976060963 6.874914834472734
