40
Energy = -61.34655945 eV
Li 15.40529003743222 16.41665917095792 13.542948213090602
Li 13.420806658486358 10.794486681644075 17.285117937498455
Li 13.895252922989823 14.053173853628746 13.895898537610265
Li 12.578221485656416 16.14383242426776 15.387635104537322
Li 14.823298819221888 13.687169477932168 16.392888878044257
Li 11.615402848475078 13.373618843278356 16.65213279829242
Li 9.51980195590349 15.78595377999208 16.087863716266266
Li 12.660407963710659 16.138881689108146 12.284976104820712
Li 15.536278687617992 10.973378816291527 14.963928856353263
Li 9.81950140495971 16.646988340445162 13.119709980663968
Li 16.673030688256823 13.515591236410213 13.467816637750808
Li 14.825457398336754 14.485705152141373 11.190975885058565
Li 12.818278095731866 11.728316471524774 14.773399786055364
Li 12.05826023048795 13.15383781909022 12.077146914206844
Li 10.452119180824683 10.253263314182414 16.084245662537974
Li 8.244438612412724 13.746194984669104 12.94707021769569
Li 14.78320902309396 11.71876737761311 12.30962894316038
Li 10.812968678879693 14.3336099930387 14.139362643138126
Li 8.630729445729866 12.781218578392163 15.731848235009828
Li 14.806039340255147 17.10154934822514 10.226665230060359
Li 10.239758489618987 11.633155761358893 13.790639073590995
Li 14.583126236511161 14.157888892469034 8.133371599589534
Li 17.362707359403817 10.666483110494205 12.304420065708108
Li 9.954891993401013 14.525052864458827 10.908888642270968
Li 10.116514169467079 8.934179194373508 12.759410291297531
Li 14.993551655065943 8.889107479860472 12.805414659831493
Li 12.7338009843266 8.89377004631648 14.633495340903062
Li 7.551841150466224 12.76793010551098 10.010256535599682
Li 13.18247962462228 12.354993538438428 9.893130565081117
Li 16.143218057255872 12.168602581479412 9.881086335992457
Li 12.391597254781963 15.27530537316721 9.580850417791558
Li 7.602954512915479 10.846254392456046 13.133051926798045
Li 10.750027513008998 12.743265520109041 8.566398397037528
Li 14.458533959650355 9.637075728567625 10.00838533206714
Li 9.808094906667302 11.57697557219209 11.111440674489174
Li 12.423720263020716 10.332173232555126 12.182462715495298
Li 13.508605979779816 11.014249514139125 7.497571414308496
Li 12.60549268330579 7.58333950631149 11.274846318786611
Li 11.48100769924566 9.781154095618929 9.50834134234921
Li 13.198446694022962 7.834256919078345 8.0445073781563
