45
Energy = -69.9791224 eV
Li 7.882316908950045 10.776398229389299 14.741812306778485
Li 9.123557232921874 9.67190247094707 11.938441207206521
Li 10.424273856592315 11.964591920489712 16.415855949674924
Li 8.831868842070287 13.660262992981435 14.408156401305915
Li 7.881212797147946 12.53120892087597 11.816468846113597
Li 10.619869635125198 9.05675972339583 14.983344518589545
Li 11.476375573484585 7.7525398936850545 12.11422519546714
Li 13.055203746509147 13.864373055945054 17.598897897159148
Li 9.741092932469954 8.04471698824577 9.370520822347908
Li 11.120724796779506 15.121180466817677 15.604426622053204
Li 11.76122350501281 13.926982508837973 13.189302429305535
Li 13.223141048855187 10.087446708078012 16.45252330333106
Li 10.283844914827174 11.505333965447912 13.564719433613165
Li 9.625742523025895 15.36464866622885 11.987890529074924
Li 13.48745021307908 7.595559433627864 14.44713169515051
Li 12.73086709574576 7.638836262695285 9.264315230780433
Li 11.560209712629812 9.978314196231333 10.317114465193091
Li 15.610861439059107 15.761253465658164 17.27193794045315
Li 13.221163065339061 17.327487003937414 16.231540354786286
Li 15.291411529664858 17.1094902842238 13.854088296746207
Li 9.164535306062321 11.177125998236765 9.028532836439066
Li 12.844454707486447 12.406993471373445 15.070775082561564
Li 14.012086937087037 14.986362086408686 15.16764838366561
Li 10.492798557466902 12.635291207942444 11.027276209595836
Li 12.263382364508825 16.812157470848717 13.06187671482323
Li 12.702925159324279 10.102462067592038 13.385972015181059
Li 11.407898536691475 9.782503425982531 7.484077427038154
Li 15.535969794377259 12.47017869517927 16.400794634026585
Li 12.114284152919753 14.94070940817451 10.447657906381208
Li 14.392628026736185 8.860204117307987 11.583248748429263
Li 15.437820600873287 9.95654916911832 14.344376066870346
Li 15.167155958048273 12.59048662210878 13.571682523300156
Li 14.222104835416125 14.829466167233338 12.35576637000137
Li 9.674175172213682 14.579401429148524 8.970003630356361
Li 16.126049795858467 11.348002493746423 11.271153881635659
Li 13.26412344622512 12.095089641707995 11.43986386481201
Li 16.79736674842671 14.639071412726425 14.76135510798301
Li 11.948849418396115 12.593905573092494 8.588850318837885
Li 11.065712593811416 17.3690849523607 9.980715273500811
Li 14.136294475488814 10.516752015641655 8.969553127249767
Li 14.222920895992386 16.844161120253435 10.38889789979087
Li 17.83657805393518 11.890470788316408 13.880701639990063
Li 12.604260814099094 15.618179688224933 7.851435903678652
Li 16.83235541569379 14.37702615204591 11.767084203187082
Li 14.63965319411104 13.737864930769394 9.547160869721099
