49
Energy = -76.82745446 eV
Li 10.81340334917489 11.650194373266523 16.582494542948023
Li 12.82875935349929 14.068477087239172 16.966912003311645
Li 9.735161167531357 14.788304429758782 16.314734722302777
Li 8.918664549168051 12.430010405344186 14.266210636332653
Li 13.763612526219207 11.143544562587168 17.990092549995406
Li 7.8452972299723545 13.019167540044675 11.394912864702802
Li 11.976764993480645 16.51766749266291 14.538962398203077
Li 6.8423131624938724 10.547360773396495 13.218883419567938
Li 9.525105432753573 15.329868992311084 13.135190810410197
Li 15.961549367937176 12.940772838809801 16.370683290798553
Li 6.348600286449564 10.61874387901521 10.316636672302547
Li 12.39224355701526 9.06039907702584 15.832622970282202
Li 11.183997142803102 10.742297657864775 13.745075404561305
Li 14.317618608690488 14.542042945583756 14.286805856018944
Li 13.506638592167725 11.746070134858767 15.358595042628007
Li 11.467225859204502 13.696994662193312 14.505110935209164
Li 10.631103737519298 12.798457349424249 11.803878036410767
Li 11.33932983024997 17.569968698341068 11.445561394097691
Li 15.700128102412123 9.949389950144703 15.676175032800161
Li 9.138800839330134 10.367548634072074 11.539851038098558
Li 14.397387109827333 16.876039042901176 12.25498474594573
Li 7.847978546398205 8.04007516403134 11.644445905267569
Li 12.320340726220397 15.07313131569015 12.024965581574659
Li 9.148844556189491 9.208491718302664 14.770050818058802
Li 13.194825453623496 12.415979120788062 12.641972940985546
Li 11.200517331565587 8.087061621449482 12.811450051994186
Li 13.864800907845831 9.651128300891287 13.191689363285809
Li 17.252532030564165 14.459283934628152 13.751047170026201
Li 12.004417018148347 10.321378958104274 10.750663918463841
Li 18.330280530374374 11.583177350581941 14.58854798533629
Li 15.885099502721932 12.000232650281161 13.611091988312184
Li 8.54631223660989 9.873515636271133 8.641542889403498
Li 13.01846070375061 15.64495939859225 9.312295423192012
Li 10.00342049855466 14.997721161489473 10.156159214875881
Li 7.693424509839128 13.001631715737105 8.336638110006058
Li 15.18533197471061 14.113797918425883 11.436181624599643
Li 10.55389591211272 8.036595030388087 9.951783645765495
Li 16.83772796096365 9.449946104740649 12.646846324045935
Li 13.77599718964497 8.178609450283266 10.58527260140363
Li 10.188784391234577 12.154723005465966 9.026163683042528
Li 14.251081885175445 10.395615052741137 8.42351640208146
Li 17.724114113082337 12.298394998806987 11.481324213308834
Li 15.065260137832741 11.096341705367339 10.955499540504231
Li 11.496898419977247 9.913407485770087 7.8540276994938925
Li 15.525826328433784 13.174256449386528 8.654955937300242
Li 12.891631174059993 12.886567441498194 9.788083815928639
Li 9.600009701910404 11.742174876136923 6.2577122328210875
Li 10.434859238470338 14.479816513591674 7.359709626047369
Li 12.701316263781296 12.62786184979643 7.017590388287084
