49
Energy = -76.62254874 eV
Li 16.405662196501776 9.530585847788563 12.633953505983339
Li 16.491164173261804 11.069695187117839 9.866527647945173
Li 14.293775812232752 9.126688871223188 10.57153692534986
Li 16.653463270421884 13.184110103112731 12.793816742591915
Li 16.617030395714835 7.867153628791712 9.905723178344491
Li 15.363746229842233 12.473404244379989 7.128188906631958
Li 15.268446077599902 13.869936768499151 9.942402079631087
Li 15.226296608879558 7.991606009267963 15.245938592136268
Li 14.508715900687541 11.644701294782891 12.076502361329156
Li 15.089131401836688 11.167262415034013 14.828642542735702
Li 13.790512259127285 6.722734753429955 9.360770831882611
Li 14.671496235680236 6.8673227144704425 12.387646256813628
Li 14.813733119592959 15.745015776720253 12.132307477077442
Li 13.869658928743355 14.03251245031951 14.095735607572639
Li 14.797764457570304 9.379335026397246 7.7186021382553545
Li 12.590053618916775 14.181829140559728 8.231083072056494
Li 13.387272766043546 12.625376388345058 16.76795211135233
Li 13.677508705361358 11.57527144170801 9.13527158028955
Li 12.659921006658012 13.487390094408006 11.216979407450205
Li 11.995229141104463 10.509385164310807 11.444409617243165
Li 12.696707300204217 9.58475127767581 16.096977262840955
Li 12.370633895908487 11.451398830188376 6.654397651757589
Li 13.452367747385114 9.18668681219439 13.471126976848442
Li 12.32812756824598 16.22636694265154 10.619710105171755
Li 11.720247321666259 7.671793830834541 11.619787297185683
Li 12.061749444638844 11.91518743574432 14.204992339745436
Li 10.802443372419578 11.75032892053517 9.154088102406945
Li 12.292317618285333 6.915202505424655 14.56628759212433
Li 12.112129420776917 16.759914512769157 13.708496127795092
Li 11.863383504865705 9.065805688773754 8.792020730821685
Li 10.486427399785578 11.56975447882673 16.66602700734304
Li 11.202446436237276 14.445707755574334 15.802975625300615
Li 10.300316397761506 16.59979804863186 8.328064487279095
Li 10.084932719882168 14.36942230324563 9.974845587192327
Li 9.296782738536997 9.485185215009512 10.703304811572742
Li 10.819902020616594 14.525873496895537 12.936961668661437
Li 9.853637867462922 12.094273685016997 11.935549469093036
Li 9.622855289527017 13.659531320485566 7.294682730567521
Li 10.21668040818495 9.666238833327304 13.900215586211804
Li 9.0392220770298 12.770531702148743 14.57790668228692
Li 7.939721155962418 12.209010867091605 9.707613547007348
Li 9.48126823487265 16.744205863330198 11.482358789992466
Li 8.3220722762918 13.716479898951196 17.09091204293743
Li 7.643647158028888 10.816681747782518 15.920047522556137
Li 7.85297354747733 14.143567067516887 12.075841699823052
Li 7.640591714973099 15.319892631780013 9.186995048836447
Li 8.74052608257725 15.708485391459142 14.582828368531525
Li 7.3727457410864945 11.065692670844435 12.795325542191708
Li 6.401006555498615 13.39112010718487 14.742234281156229
