48
Energy = -74.6592716 eV
Li 16.741599790780075 9.1545967282378 15.290918533279543
Li 15.365082071108818 11.371521486567655 17.044443249431854
Li 16.38846170183328 12.218955229996334 14.243856157178419
Li 16.36508925929217 9.908184510662416 12.24085485806472
Li 13.735812311873552 8.870829704141524 16.620789534672152
Li 14.998338458939143 7.414396838411481 13.332047616176837
Li 16.566201242596858 12.71065850391092 11.16128916309243
Li 14.364583804807268 10.11441704333418 14.289300785203968
Li 12.92734188875192 11.851063707073036 15.894473735318758
Li 12.529940861116083 11.130939857927421 18.547425459764767
Li 14.25910192007915 14.292438704199544 14.937418556504301
Li 12.015654123803632 7.9511358306982896 13.934583293344257
Li 13.95807606531412 12.367479962429703 12.614053176225173
Li 15.428149343623492 8.021322806740624 9.993022734039265
Li 14.717218134067881 11.130664150155859 9.748211397029442
Li 10.863277838601052 10.03538839337785 16.117754420403113
Li 15.372296987851573 15.031803807419836 12.210366026637152
Li 12.862426184163896 6.652463583445382 11.059641267081293
Li 15.350104936028785 14.188951052413419 8.633178318254348
Li 13.51996187785716 9.2747830780379 11.61384736972263
Li 11.727039794193878 15.82121727918482 15.292948388354075
Li 11.472996957812976 13.243578619525042 14.038911273877085
Li 12.593617353174256 15.308967089666801 12.535109762596678
Li 13.776519320962512 17.46401377523087 13.585178014073799
Li 13.225222012965943 13.949472822406575 10.187512166731398
Li 12.641143427834779 9.032657372391752 8.90857972338307
Li 11.53001066421631 10.580130899629003 13.379747978158525
Li 10.589482629164305 13.216403699715801 16.822983724561222
Li 11.914442190848822 11.521612670827318 10.649350955893103
Li 13.91487090907662 16.75609666227998 10.239180903048798
Li 9.317698909437011 11.39974005485541 11.619699761803309
Li 9.055392053292087 11.9364673720492 14.516852416323916
Li 10.231348987138645 13.926449574291203 11.710411717364869
Li 10.546278360609353 8.772312129678935 11.12755828163739
Li 10.631023535702292 17.20252052831069 12.694543483826658
Li 12.679858964823145 12.066463984974439 7.785008193478772
Li 9.020317021358123 14.869249858981052 14.083415335278325
Li 9.890782490359536 10.673496330064912 8.746225127741159
Li 8.908195974950102 9.174846519904083 13.551480853078482
Li 11.00944325488938 16.19570909659226 9.954464129101058
Li 10.510361214894868 13.538077308373836 8.998467868148367
Li 12.32667308199465 15.069334442230272 7.473545358477626
Li 8.232583535217008 15.549001419739417 10.8846029246226
Li 7.278306827624497 9.92392711399698 10.759758034963504
Li 7.139019024249953 12.901977816082951 12.345130490776526
Li 9.866776339959701 12.88482060380311 6.4449102712900865
Li 8.987443300923298 15.506276744832782 7.795498706088162
Li 7.898819158684564 12.862251760993896 9.344161972505386
