49
Energy = -73.17829176 eV
Li 14.141665574563932 6.8509510524561215 16.410947737713602
Li 14.464244271620844 7.179436850788765 13.435797843778754
Li 15.149545913805348 9.384133890986622 15.554667391172284
Li 15.574150849261887 9.6757495515157 12.645961846005857
Li 11.948776191021395 7.525658858497748 11.87547791097932
Li 16.32123665343875 11.828825832899955 14.821760709127917
Li 11.831189531927926 6.955622522329677 14.70268403339188
Li 15.846610135906147 10.532220916034285 10.02064017788475
Li 16.798820677991536 12.447015490804944 12.1624425439861
Li 13.141411761108126 9.970294746829083 10.841606531418797
Li 12.40007094398217 9.189394438164836 16.658518768806008
Li 16.80299211467966 13.422925012219515 9.515557653275563
Li 12.78750004279956 9.68440683839516 13.798258858930039
Li 14.939485661012903 15.524946421116281 8.796707065572525
Li 13.485641981931849 11.880274596961137 15.76401263847008
Li 12.087654241930927 7.898902244185487 9.064915295845994
Li 9.468019195821517 8.220862879868543 10.345504633377015
Li 14.9868335631463 14.353140107286618 14.7595606020497
Li 13.89854598424453 12.223285671700772 12.778736691127895
Li 13.121084054120605 10.416535691410195 7.958866622801269
Li 9.978999830262602 9.03265829064619 14.635862556065566
Li 13.911500707244558 12.794456921373738 9.73406141461573
Li 15.739962973717862 11.60169295941003 7.4546901921923565
Li 15.008543058342463 14.811880822144454 11.801094841352219
Li 10.624224150704293 11.362702340653227 16.63223499514074
Li 13.853112044872985 13.593922576885381 6.7909631221748095
Li 10.534696732978071 10.38376810027903 12.034403846475536
Li 10.15523488903691 9.892685389582919 7.976778317362445
Li 11.292915941391561 12.546163339536479 13.977953155664034
Li 7.84279795978668 9.219354478266563 12.518684829065633
Li 13.304142737926487 16.864906660139464 10.722344160319688
Li 11.091840938001116 12.116289113797686 9.784174968263773
Li 12.268661400020713 14.637737801577828 15.885895303868017
Li 12.022292512763618 14.250216048300695 11.620113807994729
Li 13.052158459895216 16.32188712830584 13.600265640463709
Li 8.572741874024128 11.463040649113621 14.48934610702978
Li 11.258617860747277 12.375226689593207 6.838481782145807
Li 8.320304607331828 10.873071581317019 10.124005019753278
Li 9.447491914128136 13.836796747670592 16.146465071311518
Li 12.078054270492887 14.98597564994041 8.614108790486256
Li 9.27062982668659 13.15335738254105 11.997790615226972
Li 10.237448534996894 15.372793646601185 13.86857675794488
Li 8.717338886451998 12.718428042051627 7.929820232250193
Li 6.5206360446734895 11.875954989705132 12.40061154547932
Li 9.53668615441774 14.937765640564015 9.615511182396466
Li 10.62952901701508 16.89077895950318 11.48845471230433
Li 7.403060532948069 14.162036928566952 14.152998440494764
Li 6.963456903804576 13.6360869581981 10.096145574206036
Li 7.971464194682886 15.856921404202387 11.916703701557122
