49
Energy = -76.28610052 eV
Li 16.933874613832725 14.988849046420524 9.907908042411623
Li 17.677300638494845 11.70284652557054 13.08343715609641
Li 17.831668608668966 11.848489177353677 9.781234831598026
Li 14.64843063849258 16.597582326134503 8.351834876848862
Li 16.18832980297066 9.76256363639799 15.246260711095612
Li 15.56971971551148 12.432928916487134 10.977245626733485
Li 16.315545865835738 9.461395764014581 11.710223974846155
Li 16.624727623766333 14.456261992545066 12.811131686493809
Li 14.130720593245629 14.758702700506129 10.210318382866749
Li 14.66091469441116 16.776738587744354 11.843094809579055
Li 15.507323620219992 12.873358536572207 15.59642029555872
Li 13.903957105256609 8.19908986357813 13.809195658998451
Li 15.300142748138322 13.388037493845225 8.079291500921126
Li 15.058284100116628 10.479641991162854 9.001847812133207
Li 14.937486005656012 15.835523171772282 14.897840184021302
Li 14.913915213679827 11.292483240005168 13.359501528330428
Li 12.05896094475969 14.494886175527485 8.354289077628671
Li 12.701198382737958 12.159341539706492 9.967358943411671
Li 13.941711446459747 13.997095201418704 12.98426513344989
Li 11.932127959902187 17.042291443913008 10.066872198521528
Li 13.267122615973367 10.50782173017245 15.29469059058111
Li 13.432677241388776 14.908435267981282 17.359056597887037
Li 13.295875567792992 9.787216061469493 11.528253042362449
Li 12.695447946750932 13.314564153386623 15.344897264742936
Li 11.645681716905026 14.771644381774632 11.590212872337126
Li 12.870556780079491 11.797376187355518 7.103233553823417
Li 9.28632748442754 14.92359899564446 9.660961984902167
Li 12.902931708698247 11.818790181709028 17.758062206314793
Li 12.093022261103554 9.375521642472227 8.772483941660113
Li 10.427102590677428 10.074160960870426 11.026023615235548
Li 11.99643865898807 11.905014811432894 12.911066980206316
Li 11.01067055760365 9.139677929799669 13.816514805684394
Li 10.122551998611478 11.769559681089934 8.520993728792776
Li 10.454686817193377 14.076006320169437 16.94154111715405
Li 11.882397001407629 15.980097160687787 14.441761877685924
Li 10.043046939844992 13.766014041488004 14.05917653137257
Li 9.514217874286636 16.382680838082944 12.321698854699607
Li 9.917070646616677 12.7690330079918 11.20694878963933
Li 11.62869784315052 8.559051180477004 16.637685465572652
Li 11.363435416789981 7.4155864115673555 11.217696684230635
Li 9.155343317099351 8.633224112638258 9.143471930143223
Li 10.510061645229051 11.263238870659315 15.857008553706429
Li 7.71954552103264 11.18099090986224 10.532432741903465
Li 7.797149951200519 12.666496282214434 15.595761122222317
Li 8.533573777528119 9.146088417488249 15.52889885249945
Li 7.664496297416884 13.933754069094618 12.585165805482008
Li 8.471198459661371 15.706328223716405 15.158901024315501
Li 8.843018470017858 11.136697781012137 13.36276295422293
Li 8.502446299845422 8.414271793349013 12.287930457070663
