44
Energy = -68.43981045 eV
Li 6.193393697329632 11.76424385832447 11.088707822579769
Li 7.2931389497091 14.514791487509804 12.128529973332311
Li 6.907370404869684 9.354464081567695 13.263838081208153
Li 8.589672692538802 9.962605374560662 10.70449843167242
Li 9.016898030788042 13.038251931618438 10.03764788938143
Li 5.797912918365946 12.286605921880193 14.117982264088834
Li 10.76825815507246 11.650027071065079 11.57158904320691
Li 11.81949698076399 13.539418270008186 8.391222871889038
Li 10.654410538371373 10.621863963560779 8.429471293961404
Li 9.06973597456615 7.170783579009078 12.16067896772771
Li 8.933466195719987 7.658543460307925 15.231724628149511
Li 8.259469790489254 13.910667071320491 15.095115767817717
Li 9.777244827786854 9.534774678258348 13.425847056091161
Li 10.171162781343625 14.333281673938325 12.796088423555897
Li 13.202429732360038 8.614234827955325 8.506294021545802
Li 8.224634246866486 11.976359165243942 12.925254993848387
Li 10.416328900207123 15.763824012291781 10.309385729600699
Li 8.220857179846826 10.745351713009669 15.642889203091737
Li 11.327499584213653 8.834296535897465 10.921514326210689
Li 12.946300495939436 11.032392152260053 9.868906973218118
Li 12.467738608115395 13.783134787332648 11.042545809823347
Li 13.833654146742939 11.47031154699597 7.198255484337996
Li 10.604783467887103 12.190787249896388 14.626093378759814
Li 11.929572707659137 7.636091269924501 13.634799430981921
Li 14.16064171089082 8.73606224052934 11.61700585272852
Li 14.524540843656027 14.583002143406611 6.970555799319104
Li 12.558010352685661 10.56894570906255 13.304522440305629
Li 14.82047391529493 13.277875917435532 9.333264017075043
Li 11.440895199804933 14.853668300280182 15.589998968988521
Li 11.396051828171846 9.652623135934244 15.881418831531382
Li 13.537558860390831 15.949204010351199 9.626366610648804
Li 13.061653243304548 13.472283348034392 13.697476896844785
Li 16.87386205927552 12.646331720697875 7.599489601264115
Li 15.73840501038718 10.353462757374231 9.437307221407403
Li 13.329880330633838 12.250590220941724 16.13806499404596
Li 12.499319972046338 16.17737594088821 12.837946303430451
Li 14.583182489652947 9.583347629469893 14.69183761228257
Li 16.799091171653437 10.025628645190938 12.424189248673688
Li 14.682624335125418 11.728152325699249 11.882009947835217
Li 16.630080302512646 15.327971505655698 9.134312469440053
Li 14.499563402085021 15.170108149189883 15.267945044801436
Li 17.2366955221944 12.692640177469192 10.813202486610953
Li 15.19509686523361 14.71186017835542 12.031034462824227
Li 15.818826516845219 12.500588188170576 14.28864856666976
