44
Energy = -67.72238067 eV
Li 12.404830636875996 12.873045888004567 15.914808150152346
Li 14.929630533421122 11.05665418952765 16.20697891208596
Li 12.162403108205593 9.684151893819434 15.622632556325348
Li 14.683591323288535 8.832418326460704 13.906652652592744
Li 9.696827303683365 11.476933848886784 15.64419141782587
Li 9.356511233488927 8.31272648784452 14.964110442732736
Li 16.359885700137337 11.488701448830284 13.588375333923702
Li 9.83751175789492 14.617543216705233 16.02154518987183
Li 11.978138056893854 7.597286261706094 13.39401319928961
Li 14.924023087022656 13.894914502160995 14.822801577657112
Li 12.306161992334326 15.628954708578819 14.39837599480485
Li 10.795404048114104 13.268947716753344 13.593531970091183
Li 16.392141722217005 9.186395303807316 11.57256146162225
Li 13.511148586144278 11.43913063482147 13.708414756104991
Li 7.778730202129589 10.502787187616791 13.433102343106066
Li 14.289562774301212 6.8640890466990205 11.214795631388018
Li 8.06818794557392 13.454304945916226 13.908981637120052
Li 8.94214355868427 8.251130507291073 11.910435167032594
Li 10.713942445738768 10.220870975455268 13.180180592041225
Li 11.165412305455657 6.804110696875963 10.746019574089173
Li 13.170864618961028 9.319845677265727 11.335527148736059
Li 14.954942125742784 11.667897254451846 10.975576712127905
Li 7.028802605150465 9.985834810966702 10.55960598784049
Li 9.589519427674691 16.008071206079965 13.11393857879136
Li 13.457597717334622 14.049797374675641 12.303346346293978
Li 7.547439387996038 14.569473353387965 11.245117128313577
Li 15.273951210580645 9.117529858422696 8.916260602579474
Li 9.03015054066899 12.093367941198112 11.219890199421014
Li 10.602742658385905 14.556634845674974 10.88279236220922
Li 10.507187320740279 9.8224600391488 10.010902516332129
Li 11.955611247727054 11.944519810527428 11.297980531437327
Li 9.028687997352934 8.026050571990073 8.650866855125454
Li 12.275636135449384 16.71687074888931 11.301812481627609
Li 12.437733581485702 8.122511117738041 8.641610232607327
Li 13.503915519860664 13.896997084537556 9.419721249557576
Li 9.358321576714358 16.96610544510694 10.167794101299975
Li 15.782996730340463 12.12291759704238 8.117231735408222
Li 8.456655818600302 11.22339165077209 8.319058729190996
Li 13.21683012651029 11.01669972214976 8.752848121036473
Li 8.693802888795421 14.290684377520524 8.587665760503187
Li 10.93909781398938 12.633178787778146 8.74113178680432
Li 11.451146022920963 15.61161424220833 8.285855792214843
Li 10.990487870327646 10.206602676898745 7.025552132725982
Li 12.853627224361244 12.991523080212886 6.6174710534949535
