48
Energy = -74.10602989 eV
Li 15.718551077801076 14.818755886665903 10.003680996001947
Li 17.107157401247214 12.08933418876871 9.884838280290865
Li 12.669186095565507 15.197843430349488 8.269079328225848
Li 14.313597364205359 12.604919817929025 8.359874054273694
Li 16.264353707956033 13.381996466958253 12.594233233969133
Li 15.014883673001151 16.06807680840243 13.053127068506535
Li 17.27494403963704 11.417953807981657 14.642009209601008
Li 13.174617133890402 14.708610308190313 11.101317605308184
Li 15.68188038591853 13.946734574562196 15.494415331170856
Li 11.714210959907193 12.382847487127211 6.817510470304155
Li 16.357164063637427 10.218315826613685 12.152299313871024
Li 14.372370255045528 12.084644267413077 11.042400616532646
Li 15.18921176687092 9.788936058049657 9.272814137622667
Li 10.40726580010888 15.862575691809711 10.442654132992518
Li 9.65693896127111 14.499144121644647 7.7856752674936684
Li 15.33374279817662 11.15426611007006 16.850821352080295
Li 11.294204603470392 13.037077816519574 9.628519540608517
Li 13.387888003806827 16.006114455976633 15.73097318686269
Li 13.328641181093536 13.899087448956385 13.829623776715726
Li 13.860333533378581 10.06106111549598 6.668596916670462
Li 11.782363792716618 16.406480821799985 13.122720917024436
Li 15.322613617124336 8.766074752893012 14.78233443556273
Li 14.296107780244617 11.250148188726214 14.218206084433204
Li 12.901732916207036 13.083208135922307 16.72410002056427
Li 12.551422280568783 10.044462421762335 16.644691644917707
Li 10.966108071337722 9.444387602056917 6.669145295223398
Li 13.837246705560188 8.940027426870458 11.666116631755669
Li 10.753164680826776 13.744767607533783 12.426963682694721
Li 9.02269418494402 11.474340235315537 8.177886518639301
Li 12.215843738109893 10.32360621226675 9.098035407467254
Li 11.129557378765492 11.787864448252655 14.73944630750794
Li 12.767452404654694 7.693231574427918 8.61636758046533
Li 10.663358228684688 14.60311648783496 15.250943609744377
Li 9.66163852018199 10.660876570540438 10.842657197814273
Li 12.315512275351029 8.820097516514894 14.121502161010643
Li 12.024590762458857 11.193071781849598 12.143131098546398
Li 9.367840071029573 8.56575905440521 8.973783653877533
Li 8.550818417848182 15.294916211134053 13.119974190040313
Li 8.371383302455813 13.583371586601961 10.504489237348363
Li 8.642653450046458 12.127367822854719 13.059248986614826
Li 11.099415365608637 8.136623019437677 11.282978637747327
Li 9.333080677004759 10.365462795244264 16.287779573265865
Li 8.024125309844601 13.011987152903345 15.47395554230903
Li 7.955592910488357 8.36119444363974 11.64824728617191
Li 6.881654142333962 10.958774602494264 10.807252354467693
Li 9.689155585672113 9.540830750203915 13.539534199395094
Li 6.131702959011543 13.22931945517745 12.901906022180619
Li 6.782103219385026 10.398114680331046 14.053662360221779
