42
Energy = -65.22696568 eV
Li 14.173162267771238 9.789099352309726 11.476472416682114
Li 15.86632207579862 9.325592916183354 9.118839470753963
Li 13.25257988448778 7.826375219590515 13.389528821712638
Li 14.697390692881028 10.548604593039027 14.207258166821113
Li 16.6135873217032 11.18585420429927 12.05913597615445
Li 13.497403790097563 7.345237636468881 10.014798057631333
Li 14.93046967433261 12.21412192371191 16.6611689801604
Li 11.260563185478192 8.777027831890235 11.252817256137526
Li 15.168818579958552 13.611359622280666 13.64345782715681
Li 12.550846446213114 9.753343678210154 16.037515159286027
Li 15.202927779803437 12.248823667738332 9.7528072354429
Li 13.481477106388562 8.414914375736052 6.962944104588447
Li 11.93391091734153 10.39827842156681 13.311985115593728
Li 13.121249004898667 10.131953262341765 9.014196297138096
Li 13.309765813988836 12.525429366106378 11.8078191022115
Li 10.16497972825771 8.268597818173129 14.038653303403269
Li 12.755153002084635 12.592440687991392 14.936006156232569
Li 14.428054263051111 11.351855041653312 6.810829240853723
Li 10.804997198613075 8.276147781764118 8.565435828374216
Li 13.450490169094937 14.949095919459014 16.190179719923176
Li 11.944979935416836 12.489277691448674 17.520868598072767
Li 9.936462558849879 11.141014321738114 15.271290764562693
Li 11.329422092338243 10.906373049864854 7.062962322071348
Li 10.430656002365534 14.251849064554486 15.44424643959692
Li 10.583749035591449 12.896477681604765 12.913502709149164
Li 14.013596691089953 15.121042209305203 10.62364127800586
Li 9.068729493639706 10.500446469364189 12.354697021125599
Li 12.734638485933928 13.103429382938824 8.626291947059546
Li 12.460082948028658 15.118512388846952 13.260278418116553
Li 8.272645847613887 8.05148286020499 11.382954760023262
Li 8.77424451780873 10.450450758717272 9.360088132423678
Li 7.294501138639659 9.451445837254733 14.124827945019181
Li 11.076127894236478 11.53536893273678 10.332914721308114
Li 11.171903062866697 14.59167817755212 10.58473977266797
Li 7.788204755875592 12.744435206970149 13.724117062576216
Li 11.873202747576965 15.967932591821812 8.282164948928564
Li 11.624262940108622 17.246862331728355 11.102196013127372
Li 9.400585369162142 15.52107838097843 12.688434708722577
Li 6.4761448488333135 10.767545510917698 11.460784039604901
Li 9.836119478155949 13.417122948270137 8.25308062248631
Li 8.486901787914064 13.178477129362086 10.866338274925667
Li 9.038210468428774 16.095997837225696 9.652894547636743
