40
Energy = -61.64047253 eV
Li 12.638572230615038 16.604933532284104 11.966163588535762
Li 15.538260111075573 15.593457360161787 12.808075067410012
Li 11.72591834117831 14.832725708241878 9.53079479558274
Li 14.630867716558305 15.465828883829477 9.78153617651544
Li 12.848016625085075 14.871475717095814 14.549587764991541
Li 10.529336718591495 14.317948759130593 12.030222915794
Li 8.608973729182088 14.065969779751844 9.355979975387058
Li 13.517798751051943 13.971683833506015 12.019519663417084
Li 12.935836528285288 14.30300751128622 6.794479456424019
Li 10.89906402048773 12.471738045322171 8.087195976914046
Li 9.595820101892757 14.224042495965012 14.869388754379802
Li 15.724598938144485 12.518893375542497 11.276804061122775
Li 13.739117944465585 12.83581646633804 9.144751071289877
Li 12.912241236402759 12.102938442387178 16.16550487016068
Li 15.364878674008986 12.81875116170897 14.330293486781766
Li 6.8613676706607825 12.138901862948046 14.841909557617338
Li 11.622053606497628 12.375783227452391 13.835123157732548
Li 12.113287528535725 11.844044245237324 11.021092590586115
Li 9.06034026763476 11.808051455332677 13.34855270559657
Li 13.852194789722821 10.943253490451495 13.128668022170844
Li 14.867136513932799 9.786558216853294 15.451084260173822
Li 7.616683277502917 13.978983249002837 12.37375075694168
Li 13.233205511150725 10.909225793390917 7.253066853260887
Li 9.49741952669475 11.873791777283529 10.71273132065942
Li 8.336110943600323 10.618812085174211 8.534683885827764
Li 11.187240901961209 9.842787172363407 9.140188819559144
Li 16.35814253456135 9.836319895389487 12.760945343141445
Li 10.552535771835323 9.817437994565724 6.404980757159086
Li 9.736848346189042 11.474920540498132 16.073850605907342
Li 11.09964169572091 9.735443565438581 12.431265931848321
Li 6.848447132114383 11.110414905354196 11.689627683976173
Li 14.007280308297576 9.835776563821415 10.318420105215763
Li 8.494685246377811 9.337073557296945 14.145337866539599
Li 11.764357407240452 9.49241952861826 15.063672442657914
Li 12.73449881202888 7.936585995927946 7.807771041901537
Li 8.919764362465884 8.884907041820878 11.07004387151085
Li 9.68548776535976 7.613112670389244 8.369844131225182
Li 13.641179606089528 8.1416953664452 13.026495488934792
Li 11.796696593496907 7.5439753922322605 10.686360213278514
Li 10.579564337329142 7.1091473341658045 13.427734682849135
