48
Energy = -74.64507911 eV
Li 8.885691335531876 8.836593404907292 9.840791312895082
Li 10.199341985947276 9.803275711513708 12.318096983843773
Li 9.266998649517582 11.78088132979377 10.325816470942735
Li 9.851664366717545 10.770996028095215 7.484267744645524
Li 11.262198652922104 8.024308513063545 7.910180334356055
Li 11.457987692998508 7.366693636074348 11.0991409605611
Li 7.350622331837144 10.821761891561055 12.412172081263105
Li 9.161818996139292 10.202078258696305 15.031546497059896
Li 8.676350841806242 14.342398281927023 8.934923956326148
Li 11.515696460676192 10.022302957807247 9.676998244635142
Li 11.802606247229456 8.272176068708625 14.334490942676604
Li 13.243677657541252 10.535252380982339 7.456518676077793
Li 11.630745307649716 12.893143536809292 8.665140303012876
Li 13.920218748240849 8.326934531288153 9.60557591525839
Li 7.318112786167201 12.754291425887601 14.929908706011128
Li 7.62795937213744 14.02600515476167 11.950562016126092
Li 10.465033362832386 14.326255742721438 11.047348651602531
Li 9.52353616332092 12.481618779296868 13.305889200483637
Li 13.08502210311603 9.538057828604273 12.093547175567464
Li 10.410339568561128 12.850081935343853 16.09405016611397
Li 11.169026250505 16.196380508571387 8.94374270284189
Li 15.361835745442306 13.611505441839908 8.726414703176097
Li 12.0214362414668 12.162949040851162 11.81679424357612
Li 11.52919989515109 9.956034944043452 16.96028560372001
Li 13.225304687329455 14.581644136092155 10.173876546818178
Li 9.202313190927338 15.191540149712372 14.37656565640231
Li 12.100453560108711 11.205977755828528 14.493822098385598
Li 14.263654792842905 16.765930602094084 8.844883674366237
Li 14.124491688456644 11.502416841457967 10.139594257151023
Li 9.467467458215951 16.69853265650192 11.643367312430708
Li 15.011274645293463 11.125894927658702 13.267426110510845
Li 16.258807858151517 9.770017484761087 10.944093702511879
Li 14.355666500404018 13.638075797920918 12.362338602868702
Li 16.827174150466902 12.620893322582731 11.340731420025955
Li 13.323791653458679 12.392443530657689 17.589200217600784
Li 11.829395967640126 14.58634323627178 13.509487900886281
Li 14.336411868658066 9.645940768934702 15.560478518512944
Li 15.812594343254444 15.659967895767664 11.266437503148339
Li 15.048876042723592 7.950539568678058 13.082873465513302
Li 12.713547896239813 16.763664765822572 11.612290773727283
Li 12.341412239411989 15.2108585978758 16.365829653138096
Li 14.397336172187286 16.02028442988277 14.157935548825243
Li 11.423867159670205 17.310499100759213 14.28216672058513
Li 17.398178613202496 10.277221244387471 13.845498137467125
Li 13.996657837555533 13.212271663352407 15.137141354112783
Li 16.684316237685362 13.79494119183291 14.11501046932539
Li 16.142005378800864 11.847957978161762 16.313147922915324
Li 15.369119379452984 14.780670173431847 17.00552387935648
