46
Energy = -71.33650668 eV
Li 16.322578667312868 14.139777342148376 8.092782324752319
Li 15.240675077288852 14.915504015855644 11.056513516530753
Li 16.812131758911164 12.312908178589993 10.554782521197202
Li 13.515894907287453 15.378970276054373 8.719224914866421
Li 15.83803747203379 11.026761670233487 7.761822878103278
Li 17.543297292961448 9.352204563207819 9.680483481175488
Li 12.6271734052406 16.81421026763813 11.565734883351833
Li 14.358217417342885 12.351458611230383 12.160697696456015
Li 13.746225943542353 13.121864555658616 6.582767632912055
Li 16.495993630724957 10.156097406807492 12.645370939214091
Li 11.781777528037324 14.237615387266437 11.05654275753884
Li 13.745565850530934 14.589773389329906 13.63699048593768
Li 14.667745105314127 7.956723249240233 8.631321768547915
Li 14.220024299185958 12.767885115190968 9.308105524628422
Li 15.352726516162699 11.88792825317018 14.846106477782895
Li 12.92619930742822 10.442239102753453 8.06649390141596
Li 10.725407592467121 16.088261794953873 8.967457355594359
Li 16.03871059325549 7.408419386051875 11.403648377883906
Li 12.46223805925074 12.66945692638887 15.682223357667747
Li 10.963937380811176 15.258385390758486 14.011820591730881
Li 13.219609316653585 10.269907917848693 13.694541804590767
Li 11.297807839027731 12.968178875349269 8.537942459782208
Li 14.94692436881101 9.98473033368069 10.378620535230146
Li 11.186308986385242 12.39116949033128 13.24925863740041
Li 9.445063125487632 16.42266801644194 11.684785755305262
Li 14.946811175797661 8.21977428998203 14.23962156905379
Li 12.337536595002343 11.06333802752765 10.792522223129708
Li 13.449997271998868 9.798049930165252 16.403936825326603
Li 8.731288666161655 13.804063507375618 12.58362962682116
Li 8.603705799539828 14.174557574652487 9.770315115740486
Li 13.16727432596603 8.119561599558736 11.620816795825805
Li 7.946930741584588 15.75480812558084 14.363029524951449
Li 9.640846435257433 11.59201597235851 10.786619209142074
Li 10.899539951315587 8.876822600241704 9.700379118685198
Li 10.562037439219422 10.259036547430501 15.39081663540405
Li 11.865776586944872 7.656856655571952 14.48599894271982
Li 10.6259930696493 9.445543602283452 12.561099083635163
Li 6.511584680677132 15.230242690803326 11.714605228561123
Li 9.30298455948941 13.06999834954418 15.436947239238014
Li 8.360359432808732 11.01447190781388 13.481074621031873
Li 6.6544995451760025 12.075195352296943 11.305664810342995
Li 7.966196547822508 9.134915456970718 11.310982294239226
Li 6.383434711920315 12.984270028353933 14.213658660851967
Li 8.515938630435478 8.234687942984461 14.239288607209117
Li 7.452453708668626 10.594560215911441 16.052777808068342
Li 5.851267069383611 9.91130378695113 13.488048789181356
