44
Energy = -68.01168247 eV
Li 16.495230414629564 9.560150046324516 10.780952876062189
Li 14.45509806095237 9.309950310111667 8.125434125604894
Li 14.55629402487605 14.531575946914092 9.359436897232332
Li 14.36565171786305 11.587217598657523 10.124552083728913
Li 16.26563174903126 12.937733037873729 11.720710738376432
Li 15.05301989390594 6.8127880728092265 10.027944248433673
Li 15.607454496301607 15.847917928908622 12.249763010640828
Li 14.920988316740416 10.709365616409153 13.156992452478034
Li 13.3884521233996 12.283003694335491 7.33967085856688
Li 15.171842055353931 7.52348533791156 12.9740950264146
Li 12.961918712035212 16.839912677102127 10.896594713003196
Li 13.75232354975756 8.969373110640348 11.050468597347486
Li 11.904693289566376 10.341714173153495 9.086613656334345
Li 13.481173810641291 14.10380778589751 11.834100120602201
Li 11.740688700954301 15.250093530248506 8.125829777023075
Li 14.482426301936748 13.583486061137412 14.340548166544844
Li 12.33094552040888 11.584997948504975 12.223724697833553
Li 12.915972850451338 16.03320374614196 13.824671283572522
Li 12.262802303595535 6.660167356377128 11.822167384834211
Li 12.286204504246248 7.468332659228503 8.924959839124856
Li 11.824529849906826 13.038643890221312 9.637717517000674
Li 12.536944767727022 8.920414590613422 13.811782348487293
Li 10.867879658796506 13.692943147567293 13.720688092997097
Li 10.451218127523694 12.420341710509843 7.148055623885322
Li 10.901949712604951 9.245796529119062 6.876662649512254
Li 12.446463211401602 11.593262536984085 15.257376657197273
Li 10.201166215432124 16.786848017374304 13.386802580663181
Li 10.870440453255878 9.36325335964862 11.410629858097247
Li 9.466696882836112 7.761201306085597 9.796580068066413
Li 10.063654293156521 10.585103896261995 13.94787068661028
Li 10.800352114645472 15.128168058051642 11.151721962529372
Li 9.663309003887644 7.732077470000849 13.477200781992016
Li 11.696802746513997 14.602712262048811 16.196264682303756
Li 9.59896686230193 12.264843442788353 11.43144942400429
Li 10.683241262259854 9.112819462209098 16.227853366783712
Li 9.009054166020729 10.709734758253799 9.105263393678547
Li 8.925579609820716 14.026594436809528 9.18643475519155
Li 8.762280707046152 14.878884824995485 15.233804476668878
Li 7.786676338054035 9.66842059042614 15.209043189476604
Li 7.999690972572488 9.795188798920387 11.99490199991256
Li 9.615328765490627 12.135910026548066 16.26374874089073
Li 8.105653294379948 14.857968474563318 12.156403718934726
Li 6.803317244667988 12.342130942632425 10.73912436890531
Li 7.805525109680887 12.381341019816784 13.743915677907026
