43
Energy = -63.85988776 eV
Li 15.500802761289675 12.884343730986318 10.481034055400391
Li 15.273487646666212 15.224836682298248 12.906395350622537
Li 15.854354292475428 10.63893742840103 8.841478610085474
Li 16.66867017714449 10.132259095239244 11.461878973404808
Li 13.665920580453205 15.017390445084239 10.218397228849227
Li 16.80014710541985 12.633775416483827 12.785159813706679
Li 13.601666960967162 12.385934337702395 8.43425080125736
Li 15.723652717063384 13.20547572826736 14.959558669132809
Li 12.118877042038067 15.730262405141165 12.69301711224495
Li 13.656877467993121 13.352194805126755 12.805874191140228
Li 13.676648068467754 9.484495499718978 7.825321337414436
Li 15.01472718542107 8.123188297565536 10.01832248378997
Li 13.504457646578876 10.329439415800525 10.457966238541907
Li 13.426922089827858 14.697872006132357 15.228795628471012
Li 10.935016073070674 15.61933058847501 10.07438539639859
Li 15.338389796894372 8.185898490348375 12.87133103498876
Li 11.927129083165331 12.836387049117269 10.706448230200188
Li 16.193632965254746 10.309018142434962 14.654859163275214
Li 14.422811406020745 10.834138699595288 13.087928361134216
Li 10.608675320205212 13.514748379859782 8.334513453140028
Li 11.119409293878478 10.670218962424029 8.631728289470642
Li 13.651322483028176 11.670416627146892 15.78727469272792
Li 9.408646520429526 16.58660916860269 11.943770809709793
Li 11.726922556350829 10.712235600946721 12.827764090697958
Li 12.176999372580003 7.9699524608669385 9.450414232891362
Li 8.508886932794352 12.037328772406068 7.886739950039558
Li 9.798518162072194 13.859535778212027 12.471928821482917
Li 11.287251857033533 13.12094965223091 14.664597394188004
Li 13.3607671256066 8.812433155576686 14.87636170898798
Li 9.258839772928606 11.5991986694203 10.587117306009578
Li 8.266426232384323 14.27984111433839 10.082830669466025
Li 9.78023655972691 15.685542187685405 14.549348452793863
Li 12.774445396070512 7.751005654182319 12.206154373302365
Li 10.239393626955348 8.969823774886653 11.163773471740129
Li 6.60119948901302 11.673874925377078 9.743030127890071
Li 11.13122776897781 10.459538135231854 15.615346290170216
Li 9.1549810959427 10.905196588163223 13.593986561008327
Li 7.406793193457711 15.210491600166034 12.983754347212338
Li 8.346380607570564 9.534330957524627 9.003192943017154
Li 10.594639985395307 8.389331680204712 13.927425153601051
Li 8.348127288224903 13.362327483394681 14.872531099958119
Li 7.055395932693356 12.543818529208739 12.372854396359983
Li 7.410355947655312 9.71218809911829 11.601231117418521
