41
Energy = -61.91319565 eV
Li 7.328046208642107 11.226852232069314 14.038087655770555
Li 8.22752940981855 13.880121128119432 15.257294138982289
Li 7.9926499245882585 16.086900268881678 13.198190919449184
Li 7.328600690522299 13.341952094350596 12.14096511381493
Li 9.908969737634056 11.064687795440907 15.718422883409252
Li 11.079450737836847 13.727918846121423 16.766546119812094
Li 6.832151153754785 10.276407901800038 11.218427982601803
Li 12.361164071787615 10.721410895537794 17.46086390282389
Li 10.362457800438776 17.815568569526068 12.122741558854418
Li 10.741361390082755 15.502869788247528 14.118893381225522
Li 9.53915401473923 9.679531111964389 12.934512525882338
Li 9.931051373865643 12.779981211869485 13.43069213407907
Li 14.153379754998099 13.050315055778015 17.242285226001073
Li 9.847487229360512 14.8974889855562 11.30961573050336
Li 13.153946058868119 16.962100530502106 12.845624748672506
Li 9.388489307058412 11.574053114460623 10.778468131134343
Li 12.232047441068596 9.3774780081529 14.611867139461316
Li 12.485072000499205 12.202942713959432 14.984892109418784
Li 13.63690268903569 14.855117308935027 14.951296565008946
Li 9.287293079713212 8.523560914779058 10.286397929729395
Li 12.614499031835043 14.054584487141144 12.23728120232847
Li 16.32331655199947 13.490601063539101 15.089981645947171
Li 12.239764273141555 16.26144562552996 10.253662233373854
Li 12.030188250383386 11.073698767506155 12.208136989155843
Li 15.601780057439989 15.25650393719952 12.568793979814464
Li 14.926012327465893 10.725196345914236 15.505053465110054
Li 11.994785506754168 8.17379518330461 11.808421666695148
Li 11.741172698878804 13.1063033582108 9.747223203984293
Li 15.192590745210365 17.344383698518754 10.583000740980825
Li 14.705152194320636 9.660756545244746 12.542698324522924
Li 11.728275148419222 10.021997205364965 9.582789017491594
Li 14.721107485398445 12.462451069900034 13.193009023475529
Li 18.441032209898257 14.197754498903405 12.830333450177303
Li 14.539370718605582 14.488899239482793 10.040126742644889
Li 17.50907920718028 11.206094196581414 13.2185131823
Li 14.266549075001006 11.452444093743305 10.313944119034941
Li 14.324203853625148 8.466025646492398 9.85926471751239
Li 17.62191683284087 15.205808866936065 10.088921726001347
Li 17.002899248518567 10.112184651877197 10.405997146277326
Li 16.685036191863016 12.83868462215812 11.230703178947113
Li 19.328626363794154 12.261611645476865 10.6773394311324
