44
Energy = -67.95141161 eV
Li 7.258952162926431 15.03038968347478 14.335405772862451
Li 7.650602107583348 11.98357245152273 14.829828283217234
Li 7.256580812638181 12.729091773643082 11.872033981233727
Li 9.878729636131473 14.818495726384553 16.15047941099933
Li 7.200381047039688 9.6338542502681 12.674530107977386
Li 9.462525295472169 13.705750539357904 13.509194784118296
Li 9.673731834246702 9.241920529986153 14.714713781913504
Li 10.47400911029164 11.968859218081613 15.690754568480259
Li 13.07960019884656 13.25356685439935 16.773783887241272
Li 9.563258329349866 13.364278606713286 9.862647842764003
Li 12.683921711869571 9.845930665008336 15.613514330663984
Li 10.357315456515604 16.526899547937205 13.657278066338032
Li 9.816539123262663 8.01074622415269 11.98954048598725
Li 9.568097972102407 11.023101735011357 12.630748176324254
Li 8.899236879619739 10.367434681259125 10.018982307174984
Li 8.467510302241775 15.561876274885325 11.524554652931386
Li 12.789500171602837 16.531395181280644 16.078938799017116
Li 11.776070102568431 9.071885928282468 9.808150388352166
Li 12.184958787425323 11.973947078832671 13.581938798514031
Li 12.81836808562093 6.83368228229246 11.640534397050079
Li 12.16809785733854 9.27505556591491 12.7736470365569
Li 11.657351241848431 11.600838495280836 10.880393300003492
Li 12.252932565929637 14.46326144825751 14.480888238938334
Li 11.914063750937586 7.089427530098641 14.489701833589569
Li 14.418901487472587 10.931028763734943 11.894897138054715
Li 11.287778586937355 11.402465463924662 7.878567101630136
Li 11.426516006325537 14.406649661502687 11.766483052561206
Li 11.156390772940341 16.429023207713474 10.115850816656167
Li 14.745605043318882 11.711100792277948 14.700150276806106
Li 14.176593136417864 13.733984397463415 12.010310653469135
Li 14.87125713384344 8.606673496960003 13.450556122646885
Li 13.949008195409807 11.187004324982807 9.172793442920437
Li 12.60210966274518 13.708768684602246 9.160263690891524
Li 13.612909065138211 9.415898163197129 7.156524105705719
Li 14.722484330213037 8.618322131642286 10.113865819088286
Li 15.066900143860558 14.725513662004033 14.738591752238946
Li 14.34020948929049 15.719037607474679 9.862975939210603
Li 13.343996831034255 16.48152193647743 12.714706439902779
Li 14.41887842076652 12.60050348871037 6.89460460645966
Li 16.78924638357432 12.690116707546736 12.895095735708104
Li 16.95403579863009 10.16462027294677 11.228358927228065
Li 16.3855453463638 10.38402142259722 8.13388903701541
Li 15.983045437637768 13.01119471202455 9.858839797564567
Li 16.36183371734151 15.523469761288034 12.054083635253468
