48
Energy = -71.63754009 eV
Li 18.93339408525563 10.998731036266006 15.416932067469979
Li 17.908207890033275 11.542441584265793 12.87999707177122
Li 17.172258213974082 13.237871399715106 15.31742915769743
Li 16.075163131892644 13.835760837058194 12.671457891825895
Li 16.696772393601883 9.316132398941413 14.880352994478079
Li 15.113262553036579 15.350911936903334 14.983316374579381
Li 13.971018565962869 15.777064553048628 12.23185682730059
Li 16.8250232008261 11.926549493563112 10.231014456775
Li 12.981481099129844 17.194537817476686 14.569724966919656
Li 15.00323585041496 11.505396844245242 14.239479471121214
Li 16.016160071349425 9.492125390550825 12.004989894765382
Li 15.246677327614853 14.452359296053856 9.950877921888202
Li 14.737244781324234 12.845424253667453 16.76134510195769
Li 12.242804615667794 18.068574579715094 11.914702540219041
Li 14.163937351530215 12.135686815744604 8.584867713615
Li 12.868058483505306 13.638635576670225 13.8269074896489
Li 13.26913411158606 16.67404880217092 9.535745462816493
Li 12.653068155946553 14.759591744386334 16.596526814503946
Li 14.070724475523354 8.37994066343733 13.901552242660719
Li 15.404035141589832 9.602561710218133 9.188886761024564
Li 14.208176012190536 11.877644906458755 11.503835852660133
Li 10.81807735245488 15.800863461280173 13.278526966869252
Li 10.559404670191551 16.68548175393977 16.084901970780635
Li 13.635328172151002 14.706108518150813 7.480069754177145
Li 10.225845828721047 16.503314791948988 10.52235562802178
Li 12.324315108623457 14.029577790982213 10.439314908808276
Li 14.336726617730788 9.814347955045115 16.569279751793793
Li 8.133301296303271 15.795071295980792 14.883897110688109
Li 10.169553224595482 13.805159793271704 15.517529138858084
Li 13.340564322113105 8.973708879931687 11.124219211893333
Li 11.487025924432409 11.339416560238949 10.619717187407566
Li 11.257651511956107 12.429069612870478 7.966552412860236
Li 12.162153619590663 11.84098626205248 16.086935909004694
Li 12.60735493116512 9.623640539573596 8.216278301116118
Li 10.210475565607062 12.943344434786017 12.758376388496325
Li 12.181160534400638 10.704935947954715 13.337952728951386
Li 10.900343947711738 15.344401084390746 8.048809011515896
Li 9.39924894514038 13.677632527740375 9.885859774997183
Li 11.713537921449063 8.963107671409858 15.663520942936222
Li 8.192877036217126 15.15974629208871 12.080914544834844
Li 11.415053922051039 7.733121716061585 12.891653660116663
Li 7.520557611516973 13.015954012392207 14.477154396969711
Li 8.771289556487458 10.794640966602419 9.444678070309717
Li 10.5941523944894 8.63371766468373 10.12422842513877
Li 9.357220690879029 10.045364679667882 12.394073098157055
Li 9.443816792769141 10.962907214085476 15.174736157509452
Li 7.563613133577982 12.310584470906525 11.682156070465906
Li 9.165378150823434 8.121501912490114 14.623684754330654
