44
Energy = -68.44416072 eV
Li 15.262927838634317 13.815615708438393 7.106523804008212
Li 13.392263688296362 11.366231347743188 6.678209380115649
Li 12.21340645581337 14.200634474511514 6.446586098698165
Li 15.388182597595211 11.382032920568774 9.193977710170238
Li 15.591484357522333 14.352452685317308 10.215166068867807
Li 13.555510739093886 16.080162001946473 8.603163953643588
Li 14.617497654381157 9.590647057672607 12.04644084492699
Li 10.634086579054197 11.942306446590166 8.00775905947735
Li 12.601974791492726 10.29521188332389 9.612495481787306
Li 13.143187698262574 13.1720100194314 8.773787700424721
Li 10.59375555685995 14.991244410137167 9.0313891714943
Li 16.59888006385423 12.079429952933294 11.983467729852087
Li 11.995583276580874 7.765572784066383 11.353795584621587
Li 10.960843787006963 12.614187330659124 10.824299971352259
Li 14.731628180436442 16.97590447890513 11.582692949271536
Li 11.536311617972746 17.494290058752153 10.69348070853794
Li 11.68505630825 10.316759000817784 12.379845909742059
Li 15.618657195485254 9.68042501541764 15.2215121992368
Li 9.699832250226281 9.867653192322276 10.451532656354756
Li 13.774465894607632 12.272836892245888 11.566784449169706
Li 12.624739950060922 14.966335963068774 11.023244542024422
Li 17.227086016746853 15.269866967972344 13.166402040243813
Li 9.675564547785477 8.663036410696833 13.403199527398883
Li 12.743501918612383 8.532236530507223 14.259070868012001
Li 9.841167154089698 15.06013149137488 12.26807799180791
Li 16.31183348568757 12.698757254982846 14.731599300750679
Li 9.097312632371349 11.834156941984052 12.886388891832873
Li 14.912429478498272 16.79179904297392 14.843208823199923
Li 13.704964638021037 11.440222490006038 14.444823363221506
Li 11.759124994021407 13.381980628833315 13.67099419377778
Li 14.720289401009254 14.477353007173932 12.992096962518616
Li 12.373275839612948 16.32167500287181 13.415581266105411
Li 10.805533840499695 10.889562516754232 14.99740448233482
Li 16.37809196400508 14.866148684575323 16.68650456907117
Li 12.81035118821251 10.02210043130282 16.951139245014858
Li 11.923267437748345 12.79378053240961 16.84414641400755
Li 14.85568683156052 12.140087549206301 17.31420254849534
Li 13.89483477981271 14.262121448978142 15.5481041686752
Li 9.447815318612493 13.570957754627932 15.511802924443915
Li 11.541081662353049 15.700277214971592 16.13712877816091
Li 9.831959881936115 11.171823045707251 17.7729555899996
Li 13.555270347206458 14.785403100722709 18.32991322227884
Li 12.45222785346841 11.976798656945903 19.366664436547207
Li 10.365338729143405 14.167761304228918 18.595111434587977
