48
Energy = -75.09639561 eV
Li 13.742398240532648 7.849590749110244 11.40410433515776
Li 15.8138251768189 9.554593744369647 9.922270459428868
Li 14.857304096851779 11.009864575580506 7.338584543007165
Li 12.803616376377505 8.944932263556712 8.72843801195041
Li 11.699173430330955 11.80652774811205 7.642925426865574
Li 13.561997706157873 11.524121121467275 9.643351361871433
Li 10.832186000137797 7.27365240367087 10.665531496374788
Li 9.7811328635107 9.967833112673263 9.375844175769778
Li 14.151877174489417 14.10466713979925 8.051516422479205
Li 16.133458957552186 12.721386623433688 10.067876786208869
Li 11.734345773083188 7.65196730351984 13.681179264171119
Li 12.61263705696932 10.190271077831477 14.01712215331432
Li 11.180893987177752 14.589910461194837 8.855700016609415
Li 11.854193677531681 9.792620848494344 11.394659182262158
Li 8.830649765371245 12.874289084699154 8.504557034105808
Li 14.608390113978038 10.889528353800403 12.059679368871592
Li 10.91598294291647 12.282949820240837 10.492576463104877
Li 10.252542961940643 10.008634152679026 15.6287123331145
Li 15.182110411661037 8.771288362493205 13.93316300960471
Li 17.238022432304163 11.029430897883469 13.028229263913213
Li 10.207262690957034 12.060400825562573 13.594710324123223
Li 15.565718737983076 13.75090259182373 12.80446139648853
Li 9.313263618840963 9.534648374326117 12.559077068458668
Li 7.594662060560695 11.493166723520114 14.430007395742754
Li 16.905550914995253 10.267415458365312 16.18159857649305
Li 13.715007374535558 9.518262479316366 16.555105350928514
Li 15.021006203952517 11.581084778793945 14.859966426449475
Li 12.820943942458472 12.79840772920718 12.999049541386803
Li 9.534803675323014 13.208334693070924 16.281767489072507
Li 13.445564815824135 14.117236121083751 10.668947469648352
Li 8.2920148656079 12.420317762261794 11.479925345520414
Li 8.819619804807399 15.52594012402969 10.495994355178812
Li 12.370690448133475 12.21043085310913 15.986568062754461
Li 11.420391312964313 14.714033711878391 14.78090307183325
Li 8.605948511698212 14.618395467423037 13.72341292447546
Li 17.1373537507336 13.333716657761123 15.364887218750905
Li 12.136801307357036 14.812094329787987 17.54385457397577
Li 14.274665450228538 14.397176290257187 15.397539203678038
Li 14.988013740321431 12.392517341041025 17.557398641845904
Li 10.88162832316852 14.637200458850746 11.959863711803992
Li 9.793635219304214 16.354274269344202 16.192025903909848
Li 15.288834115209546 16.240056804927328 10.831286903124015
Li 10.667009991747213 17.208664996076802 13.216986689171273
Li 12.177626691166164 16.856953376757904 10.503682429866526
Li 12.85895195581455 17.198887562155242 15.477000565283326
Li 15.816794982707702 16.62250429743403 14.140010224489783
Li 13.379034146191367 15.883164656842315 12.988696363692748
Li 13.722867719105675 18.54990830566488 12.778740745182862
