49
Energy = -76.6545051 eV
Li 17.654276199881608 11.237571409441092 9.700805782965018
Li 16.40984206035037 8.60108064310784 8.766423614941148
Li 16.205519296538363 11.069835114342792 6.892586091760762
Li 15.656706663652402 9.662440562113895 11.735670223833283
Li 15.802883288165399 13.672878981757997 8.478016149600514
Li 13.565015582198882 9.37649741745047 7.328511271667804
Li 15.968491383202975 13.088742363209958 11.343745453348399
Li 13.369474175726113 12.4284563542213 7.182266499883957
Li 14.003355848491474 7.138839672329956 12.879778050158649
Li 14.88262167215201 10.933868947208863 9.33346096944445
Li 13.719522609308786 7.903066658472652 9.886679073651342
Li 11.174262251968797 6.841911928550555 11.532649841662698
Li 16.216194857201582 11.81023492650451 14.089511808868712
Li 10.887417842094047 8.534691217841331 9.008418781043973
Li 13.86873417341821 9.864263131455536 14.27624471424197
Li 13.672213585984931 11.852033062279022 12.079046454279972
Li 13.248357363862329 13.599001348277623 9.862223817991275
Li 12.525958478554218 9.297818638194311 11.800194302152056
Li 14.583266185707654 15.829242588766222 10.735791574631397
Li 12.032967682692323 10.99574793734482 9.544047013892271
Li 15.070772165824609 14.813598428806552 13.612015211922072
Li 9.77789984687245 9.784244504582436 11.624866122202135
Li 14.794284907274834 10.942595865827359 16.91873065453531
Li 11.277560131654484 8.387794935711838 14.174202232611462
Li 12.772309107981927 17.065652119094416 12.964674337570026
Li 9.08861265050331 11.233990680758332 9.019042362789563
Li 10.81345161093401 13.661678462776022 8.302895086573313
Li 12.36312346161664 14.349786156197625 12.766349676537182
Li 15.678916056120437 13.892139959180367 16.524314006383467
Li 10.476248954438514 12.752578213795903 11.159255967951715
Li 11.281425146471614 11.457127597172217 13.590737295034335
Li 12.668890614329285 13.207377342497383 17.587488239284145
Li 13.681168006745942 12.698083440052232 14.990956817975821
Li 11.654789694435413 10.735677294767834 16.22964641004881
Li 13.349776674678766 15.530300359056342 7.807982212163926
Li 13.19959391557946 15.682357807670096 15.828335160280059
Li 8.780961350969337 10.234389061320787 14.463711461541397
Li 8.378684451457492 14.213568905004509 10.165811454267963
Li 7.409023778240756 11.668728554929162 11.752908982159596
Li 8.810823848615962 12.978888940622376 13.680639620134848
Li 10.436627143764667 15.26454131041947 17.701764180360044
Li 10.537571082806108 16.77333762653184 15.08069060731413
Li 11.431315023016907 15.816046067700237 10.287225349174491
Li 9.174747381042081 12.419214445226487 16.749043639040632
Li 10.969218544277972 13.967533200232841 15.273983459962079
Li 6.442930540032137 12.281827148022998 14.851406628427993
Li 6.672602030835105 14.556860587026925 12.799945523332255
Li 9.647043779554178 15.438377869128088 12.648721790423048
Li 8.093610182366453 14.977041284819844 15.533788440576885
