42
Energy = -65.17655215 eV
Li 8.430512898889713 7.242175007694743 11.767234489158795
Li 9.336952567342042 8.26956233475495 14.683126805170504
Li 11.106717340118161 6.296646071738053 12.947254848530655
Li 10.906772305162553 10.117346854397177 16.93210925084406
Li 8.104903991968529 10.939196370998634 15.864641539320493
Li 11.038276385459902 7.133092107725315 9.869051254765877
Li 8.048320129996844 10.363956289955038 12.535014337431825
Li 12.46149739627681 8.76452161220858 14.52913819152999
Li 10.610231420457488 8.88683441418442 12.1597193610219
Li 9.154992482773183 9.582351863212741 9.70672966198843
Li 13.083594053683015 11.70136975249123 15.279159008499116
Li 10.462517495772815 13.177159074100922 16.05592203339007
Li 10.390544982448667 10.924583099939397 14.304033964027875
Li 13.44943036005748 8.07981316646497 11.680507764984279
Li 8.467603775572103 13.086769541720152 13.746282842039117
Li 12.703921648115504 10.845998363466615 12.449374991518717
Li 13.76266147609693 8.074503691845067 8.489788152292613
Li 10.27875323718929 11.815264120672051 11.319753300602025
Li 11.06774871276308 9.226503025413948 7.247684943021971
Li 14.153128278929273 13.338276263428245 12.964619916451136
Li 10.732615393820135 12.15975620058741 8.511400201321853
Li 7.95046942269394 12.429793621835078 9.723068946543039
Li 11.389948002204727 13.526210029210336 13.264817945998603
Li 12.091290407520505 9.85208267017456 9.756203644084852
Li 8.929440683179747 14.58005019179151 11.391453390324092
Li 15.230994277955018 10.32694952253674 13.505626594106458
Li 13.554574533230587 11.027432023082998 7.653254460013452
Li 10.138021053626954 15.745176264336397 14.06097075494118
Li 11.580958831902493 14.538844711751501 10.523699631043229
Li 12.998580451295517 14.107885601005641 7.928164653128542
Li 15.103554156601936 10.269430989395017 10.39194466127225
Li 9.77682602604717 15.178012679412657 8.49548082076465
Li 13.18589867470242 14.759004429504252 15.255819111293606
Li 13.425327861913688 12.486029634573356 10.245080836632152
Li 15.961910310891952 12.907404279817337 15.080306623791431
Li 10.207826604241431 17.095709956650836 11.122329075910917
Li 15.813248370227777 12.787319787411873 8.752394637639592
Li 12.513464427202518 16.81201661164939 9.291438387183675
Li 12.82513413161045 16.143674486035625 12.495788295525156
Li 16.55094599991 12.707854339083859 11.854180105393574
Li 15.842311884186401 15.491042443720811 13.401019473828603
Li 14.737342462826712 14.99938515199284 10.52479754710828
