49
Energy = -76.31363665 eV
Li 14.010609315874744 12.333157236059932 7.873555625521374
Li 11.971893866003398 9.770779785581762 7.983454996219167
Li 12.328286416662925 15.049527471944593 8.04033296251063
Li 10.932916553159409 12.468957851212705 7.088727402607008
Li 12.51769337797031 7.1259466495330175 9.662546824577818
Li 9.601807706600239 8.013457350722584 9.067554968314182
Li 7.698814122145246 15.582250344353119 11.196783266442937
Li 9.265969296149384 11.009856017018251 9.242172830302398
Li 15.283038700123766 14.83085690147167 9.239694878567104
Li 16.746607403864644 11.992353412847384 9.280197808326559
Li 14.3632558388313 9.785693317008937 10.066823690455502
Li 14.690246530458124 12.70134721955217 10.91480428114987
Li 9.789392201833062 13.972082466780288 9.587637225284691
Li 12.036584557323797 12.126707846064972 9.782167943431592
Li 13.567846267051664 17.364512501434373 10.04308406530649
Li 11.332470141580863 9.35226181479496 10.78436827833101
Li 10.151816965076636 7.022162034031568 11.902509078509459
Li 12.567392232525352 14.875917832393123 10.673841908654673
Li 17.307960469239774 14.01298046451846 11.749642035926168
Li 16.691046476526168 11.052115573285116 12.247724272921058
Li 7.789966432591317 12.564968355986895 11.642599290148915
Li 10.099922226929555 14.751231544000126 12.40329368122836
Li 10.48990042917624 16.834549820949334 10.356744023288057
Li 15.630522093862266 8.400995113952806 12.9345118891859
Li 8.503732724426344 9.545703850710446 11.728103141399112
Li 12.904475540016621 7.661280996571765 12.567770036798969
Li 13.566973156931914 10.541484352433654 12.788452970514845
Li 10.376641975073559 11.808859723855397 12.130462070393687
Li 17.96476737299629 12.727950386872354 14.619873819276748
Li 8.02196260911067 14.304914384803128 14.215686623885864
Li 15.403778093709235 13.129444164650847 13.763293388293494
Li 12.641404880944506 13.354580641032292 12.942615012592066
Li 16.601097908190756 15.488346884585589 14.691078402472584
Li 14.843973885883702 15.600398451590426 12.22653377218165
Li 9.129325567099775 17.212906779415203 13.295493247842584
Li 12.20059911944486 16.770047852751972 12.993893092345777
Li 13.220664705704648 11.70353115060016 15.361998215648594
Li 10.899066924434024 9.582200519206307 13.86504683538593
Li 8.39254544897198 11.144999244677837 14.510713994043837
Li 13.38678230042766 8.757956435565442 15.361736082658075
Li 9.040906046349294 13.123071254172686 17.04075755444409
Li 15.83860067634781 10.48050485137338 15.15398183848409
Li 15.462804834285421 13.196451619212882 16.647980616965835
Li 10.619922761305263 12.777823234140556 14.854600110902082
Li 10.905751068968229 10.564057347266223 16.71864530879739
Li 12.196541975052046 13.367899893488222 17.368081244070968
Li 10.586115755694314 15.492776388363017 15.440566591323417
Li 13.544433187760745 14.982150019118476 15.119964699140386
Li 13.94728085315136 10.711246917720157 17.81231058078728
