43
Energy = -67.09694952 eV
Li 12.489801834685101 17.724039442098473 12.582118825615668
Li 10.241881243692623 17.628360396636086 10.763963263384898
Li 14.82520101667511 15.984971529406748 12.932674418201717
Li 12.147705092297247 15.954627256458155 14.984379792008713
Li 13.322370092685356 15.99998761332939 9.990876625430934
Li 7.2416336495884455 16.70576431023382 10.452486713110527
Li 11.768247894146985 15.079004883243647 12.121427784919097
Li 9.588862182404066 15.026500783167673 9.871375246887
Li 16.580527392679503 15.083839825168743 10.46647902623098
Li 10.628749896313197 13.441818164226024 14.429968391600642
Li 14.805577437189772 13.042967616680563 8.629994469851557
Li 15.15205207431188 15.289863967902804 15.983659656878038
Li 13.690776960726051 13.793448215172134 14.23560423485562
Li 9.006040806570201 15.623389367454429 12.72931819232463
Li 15.316428975119445 11.98653571787267 15.904885833145235
Li 9.608808119073487 12.803852598281285 11.70052142673831
Li 16.592441175473294 13.595467361909519 13.457160963400378
Li 11.9017714549715 13.168244073968507 9.7209593970268
Li 7.1206964786879485 13.667715428502929 10.976977972418782
Li 12.664643836180538 13.344882013165812 16.9110329521515
Li 14.429712235003647 13.687558655981142 11.368540693062572
Li 7.80503853116672 12.631532264270342 13.954526386895019
Li 13.062463241387242 10.185585276846524 17.55723008569744
Li 12.275615796420116 12.26942302165605 12.398506025553651
Li 16.630594070937278 11.792885443264465 10.871840437955678
Li 9.112075164358274 12.136704019874553 8.866030070931869
Li 13.819852815980365 10.957671881063852 10.352244733434784
Li 7.922344872144517 10.53346070839449 11.432962073907655
Li 14.84270821825717 11.33314541954052 13.125368297813973
Li 15.471718006909327 9.781540333333878 8.526335777811532
Li 10.159851050225825 11.242165955971931 16.527464866426822
Li 12.536273657074572 11.198050651472899 15.061922733955335
Li 9.988787593490185 10.573311140168387 13.559835613331357
Li 12.436949375547133 10.774986810981309 7.926744383519065
Li 12.572368540883822 9.513798461746577 12.635891836368266
Li 10.813488258395603 10.411894059977165 10.509027068682977
Li 17.340595389782617 10.353000503025935 13.858543527654891
Li 14.64171212889747 9.063680831139253 14.866481056809006
Li 11.542147375896437 8.517087434754318 15.207700690122751
Li 15.480303120814233 8.914471707882026 11.730428616727181
Li 10.318537537532725 7.938811696344384 12.121780640834126
Li 12.952362848582093 8.270375469038136 9.980564606318286
Li 13.269752330424371 6.944450015997386 12.957772005316263
