44
Energy = -67.49406469 eV
Li 9.819552210606199 15.944620036779755 12.545854319753712
Li 13.605752154403344 17.35336268816182 14.998280508563047
Li 13.49854497484862 16.430786957813584 10.058203082925653
Li 10.521524250475393 16.604730811207215 9.76388791580199
Li 14.987985231623329 17.59484513610028 12.306666433999185
Li 16.491330941732034 15.323796023122545 10.68056261999837
Li 11.899405656936658 14.282815104620484 8.290940975568521
Li 12.004496369610475 18.15754022349833 12.326325864101433
Li 8.296567205452826 13.675108299753537 13.882413395970623
Li 8.640439049600923 14.010908290856845 10.534720825717729
Li 14.963895694845762 14.534921278410419 8.140104907001152
Li 10.756965422416986 15.773357663875027 15.30310445418767
Li 13.276845774880302 14.307410702162043 15.747529728871502
Li 14.299272349791764 13.744302662687268 10.834922083208339
Li 11.031036577830093 13.38143276695541 13.692291226839846
Li 6.748430686436365 11.780625896090982 11.604960089863178
Li 11.42660125779221 14.174387989065597 10.951585024295847
Li 15.493969957034043 15.03704490635715 13.756261411320464
Li 10.207200610213555 11.896622188739151 9.187927030005408
Li 13.448009694616694 11.667947217268207 8.836002544976711
Li 16.735973654380903 12.590623640194288 12.45361796790401
Li 7.560774328233258 9.0651846781812 12.922959266013352
Li 13.765064298184477 12.569857072703092 13.433976845215163
Li 8.407089029762492 9.68785842794391 10.033182073587103
Li 8.900620686454198 10.803270044321422 14.885440247552925
Li 9.368223921729207 11.550972297572306 12.093521768880294
Li 10.708680938687536 12.76848771606765 16.376761536726203
Li 12.879207869350669 15.612528890524723 12.96484135756036
Li 12.06092661262572 11.489801961229318 11.382752549703888
Li 16.52625860178278 12.111512541939467 9.412366058272829
Li 14.750368731705914 8.752990297659444 9.71915323726869
Li 11.597065156495606 10.564466423069291 14.295236286589313
Li 13.48999282832981 11.269587147486249 16.189090958688297
Li 11.69119049150086 9.201184564122254 9.695372709764737
Li 14.842648149471353 10.907041559862432 11.294248468425264
Li 10.272860312569424 8.912742313857432 12.143205712876538
Li 10.05756293952386 7.894456643764484 14.674283818262007
Li 11.019002925555327 9.685818643081804 16.9592398849932
Li 15.34151541899806 10.148579708475296 13.998458876905268
Li 13.116895787133222 9.085239313356197 12.325553329025645
Li 17.18754246657509 9.63013474511996 11.452950145666735
Li 12.067453599160581 6.525118275527725 12.28459245420072
Li 13.082083957548178 8.098547920207174 14.96958829546357
Li 15.16694842978145 7.38037241287365 12.554236172040417
