48
Energy = -74.64744745 eV
Li 16.938238262052174 9.307990103228216 12.87525994209769
Li 17.004269476488705 8.635411747907813 9.65635316258724
Li 14.933837554640187 7.165143985684891 11.44200054654882
Li 14.06813986250078 10.990173650123872 13.581153471858597
Li 17.40797629946376 11.587868448983333 10.415051941372377
Li 16.512782156898478 12.467611419873275 13.228612663298358
Li 14.177423320254505 8.2803436508849 14.182387903080926
Li 14.934980645697257 13.13500077849364 15.68407743260898
Li 15.07369766726345 9.920956032091814 11.119670897528184
Li 13.416243656376938 10.30999708510272 16.391854075845337
Li 17.203128294772817 14.579478749195518 11.298652970142106
Li 13.9363282940246 8.469602399763284 8.888540835235224
Li 15.205473912287468 11.066442644598377 8.300606514251166
Li 16.2213193138118 13.949469110500146 8.537015100943877
Li 12.438399409173595 8.880143799165763 11.918714980222283
Li 14.843769642754317 12.855941045503078 10.788387096450577
Li 15.597590481322634 15.659945826045885 13.731186511959756
Li 11.6334121732064 11.91972316162057 12.31328415682615
Li 11.202248030868017 9.712912027941325 14.359003056935617
Li 13.687185602919199 13.93290483273679 13.162554593096383
Li 12.062994675145212 12.525794476076031 15.27952403826
Li 12.771990584581998 11.05221069469546 9.90313180002741
Li 12.08391334005507 10.47309473686456 7.254499223825258
Li 14.563283662576833 15.654471557013752 10.482842711628196
Li 12.87865257393339 15.430008181921052 15.518648663970891
Li 12.959979375658149 13.557180300698223 8.334531736224578
Li 9.986841311042987 10.963476709378257 16.82192481611086
Li 9.546026861292406 7.653144448063622 12.202931228806158
Li 12.635290624292768 16.607683698933183 12.450473968413142
Li 9.305560419544102 12.151868128858327 14.31732944487359
Li 11.914240250067047 16.599029058338648 9.24967377428722
Li 11.8426521452858 14.295700959737616 10.802437384798157
Li 10.18389279543529 11.674170752862727 9.323183237930595
Li 9.310714764604375 10.342258960820788 11.786255416606954
Li 8.096952720535402 9.620352402593015 14.54322093717132
Li 11.082149929420375 8.702940129962636 9.555254146149501
Li 10.842311071535743 14.548627610552865 13.645493815843292
Li 9.767570815115807 14.105085302461259 16.37211809810496
Li 7.139724482818163 12.25167974893489 16.015663645479318
Li 9.072563683891689 13.357957935391562 11.609584681957282
Li 6.7265321602809625 9.244659978401788 11.894781809221143
Li 9.590412108889964 16.204730563684347 11.458684941144263
Li 8.287859326659321 9.094505087707383 9.392719303049686
Li 9.43533463153696 14.495116197969784 8.992703381610267
Li 7.811174166824147 14.7231569673166 13.942896606002728
Li 6.714331224620811 12.099162308259046 12.964979434131005
Li 7.239481607067166 11.889752693176236 10.023197746081726
Li 6.798271900418222 14.77983786494942 10.977773381159313
