42
Energy = -64.77951827 eV
Li 8.738085287953416 13.91870040861492 15.819773987699982
Li 8.96822793644771 15.363344274721774 12.904334942322555
Li 11.208568082350393 15.716576570680296 14.883986670327777
Li 13.876136703263837 15.520419119567105 16.483845208639625
Li 11.76627876890623 13.107506259389726 16.57361403159878
Li 7.925360022486972 12.20394956344938 13.265524456844924
Li 11.270885127755196 17.55928866640323 12.204093557433307
Li 9.778628040987012 10.858963361902111 15.7006482935016
Li 13.341490545562776 13.739002738653875 14.366763223849887
Li 11.630514570474167 14.792472017047091 11.974799021305289
Li 13.798466602133523 16.410860340063074 13.413391323792773
Li 16.127033857669353 14.474287065332181 14.439131618032347
Li 10.446630924655087 13.017458317005968 13.816497700293686
Li 8.881454542925804 13.517887351945737 10.42542043343417
Li 12.210664284693005 10.914672941219749 14.114849551323585
Li 10.42506848671258 16.04526925782195 9.61202757410041
Li 13.066421166276983 10.203351085481554 16.500985593259365
Li 7.800415784954439 10.494577772715973 10.596213826149217
Li 14.977027926510806 12.578724064109531 16.56498099509579
Li 9.476032733168037 9.541253497634173 13.02047571110737
Li 11.52731300991485 8.151123511930777 14.667038338881389
Li 15.980963714605767 9.686948905399369 15.939766214159182
Li 11.717432845283325 13.373363480955426 9.32441111182367
Li 17.72242899418554 11.917600728976145 14.937647975701992
Li 13.391508873998438 16.071802108371433 10.22622424819773
Li 9.801539433097146 13.936287889076361 7.3606782992612
Li 15.158266089995136 11.5044013905518 13.8163254412394
Li 14.327965157899946 8.696107330537606 13.62095574467205
Li 14.826727370306529 14.153182778357111 11.8399527858006
Li 12.93666609432093 12.268656638552526 11.779812565955256
Li 12.272439672021319 9.333459878805945 11.924989880518984
Li 12.592567440613136 15.161117709211235 7.391435272860228
Li 9.866098151630913 11.162400489618088 8.457951254691714
Li 10.356999043522869 11.424465469557177 11.282680933908392
Li 14.522411600903304 12.972284193202647 9.147118907825709
Li 17.10653163144741 12.457313158286347 11.89805891544077
Li 12.31667860240285 12.172859208377261 6.803430698419305
Li 17.158032319298133 9.501214270659885 12.958688890234919
Li 14.962811964979483 10.432174531426487 11.084987054065948
Li 13.876270797986567 7.671361079366754 10.410668563642066
Li 10.343712125131196 8.478005430486183 10.163516962200202
Li 12.621811564045396 10.403038930900646 9.308077483608573
