48
Energy = -75.01438794 eV
Li 13.777789466950093 11.687072577744392 17.089659530364294
Li 15.029855940538035 8.990850794385395 15.702642748311119
Li 10.394237227288999 11.83011288927784 16.791028263161788
Li 7.573932441817798 11.818404518905444 15.159800574742393
Li 9.395264794509135 9.124293200453215 15.307113869144995
Li 12.226704616543252 9.965179302984641 15.137020761813362
Li 12.225464400357913 7.078109137834523 14.577415968421517
Li 10.91248577126557 8.890638903023081 12.707923814583895
Li 14.78021088181431 11.431623583801219 14.353948709791753
Li 12.313165383576226 12.859952397148154 14.904815905503755
Li 9.691870256191567 14.222834278850792 15.049370915141738
Li 16.82589466996196 9.904456635707156 13.177352702051582
Li 8.310387892981955 13.240096928558188 12.361084228315484
Li 7.992783589474979 9.961129276245918 12.540223265357865
Li 14.858053865006273 14.150167624476607 15.716118966832916
Li 12.079548560777935 14.766563129918222 16.97475363817298
Li 9.97298566885463 8.30002200924753 9.959344128393457
Li 9.977392171755566 11.51388830923354 13.891305210770478
Li 15.09110016305882 8.591045584518673 10.099767453740505
Li 12.575598123165259 6.790310560932545 11.160662271232487
Li 12.49263487820834 9.47243273073353 10.250157520144382
Li 16.882050612372534 11.539688926333099 16.077453046191092
Li 10.53425263443411 17.189952568599757 15.793841868459756
Li 13.924456806564375 8.929436918439428 12.860798629723876
Li 12.603881422005959 7.774426935013093 8.163947002949698
Li 10.135952955754991 11.200379088566176 10.938789521630033
Li 11.198559480330252 13.8981578999955 12.232865523938116
Li 16.00536912000812 16.067411449625776 13.87483872328471
Li 16.905395627040665 13.06309693693487 13.330381289260261
Li 9.583205742736192 16.219421610258717 12.797868810603203
Li 10.898886277276814 10.725332518182189 8.021907515462248
Li 14.215170940870046 13.974250556138665 12.879542796939434
Li 15.04383627474595 11.54322457811158 11.141311489822467
Li 12.572114180317367 11.480223066202702 12.474430496804379
Li 10.151520640551903 13.974554057176961 9.680091402642686
Li 13.990576446342702 10.629330557313654 7.970453980964074
Li 12.228867234927355 15.726431431756795 14.110988880881699
Li 13.671759311819669 17.393220708120687 15.596568338451736
Li 16.11053687907131 14.993655177840152 10.966407766219106
Li 13.300539373807325 14.577861946365307 10.38564380147462
Li 15.183131327251578 13.407370231204363 8.614750074717561
Li 11.526812628411427 16.731531505244746 10.534627383975357
Li 12.552589487190197 12.21488989390435 9.72649967998145
Li 12.458195098087993 13.986277254795297 7.58659169425428
Li 11.78927283966273 18.493761589371754 13.240693582464393
Li 14.226258610089626 16.627370547900927 8.885262990656567
Li 13.14653448829199 19.252298929398513 10.470457542595959
Li 13.9385690773387 16.961749950989212 12.034248235576353
