51
Energy = -79.39031101 eV
Li 16.708804028244703 14.267998224310308 8.510387819873799
Li 14.315519784917974 15.745481624982336 7.2849884228980955
Li 14.678163261138556 12.698700883532716 6.731166388647012
Li 14.979954063275501 16.397668148724645 10.27840762033889
Li 16.718571867360126 14.441209594990328 11.471343980007557
Li 15.683425831860703 11.633885258100065 9.582337338454392
Li 17.836452806679777 11.751061529927336 11.937876425942813
Li 11.68790057262377 14.065118797815012 7.203539597539385
Li 13.918422789308423 9.120126429348574 9.200356535436773
Li 13.927838695064048 13.801807711361487 9.215806729244095
Li 15.527671001768915 9.625035506085334 11.76646098335347
Li 12.015016212178919 16.134471890200167 9.447195225909434
Li 12.457894850889696 11.376167664380976 8.171594099339769
Li 16.833656350019265 13.612003651864034 14.527035812834443
Li 15.020619587610163 15.756861657299252 13.66931552828195
Li 15.073268632918765 12.505031402303802 12.373591194557742
Li 16.196123584058192 10.706365682963346 14.494586974841164
Li 12.887683215268737 17.49037183346948 12.200966297714519
Li 12.843941413672647 11.26558204064123 10.977957350807475
Li 11.012361846662593 13.34256821265014 10.090803835747133
Li 12.880985115451356 8.225981650857324 11.867896367889616
Li 10.696564472510365 9.3597574997104 9.859016294446876
Li 9.54313178948519 11.762543247739377 7.979165455600834
Li 9.088048845597577 14.90521998222327 8.926061669143717
Li 13.22579919461356 14.6493874227888 11.8290580982329
Li 6.983086230365731 12.624422965770723 9.141448820228064
Li 7.5566176959056195 9.637693398952392 9.340981882787421
Li 15.712807846097622 12.280439557227789 17.0554563662005
Li 13.781984534589704 12.98323363062608 14.990483980823182
Li 8.9492115979855 11.511942672896117 10.86300548995063
Li 11.182374073188983 12.900497021587178 13.123955261037539
Li 10.411316367550866 15.669909462042737 11.940629772531153
Li 10.067477385071964 7.253846002516197 12.274718236324501
Li 13.415368094944778 10.36688988562955 13.697630694330329
Li 13.889803880092373 9.888654001174977 16.429927991225185
Li 14.839887101704196 7.923992158836918 14.231031883098398
Li 12.152878681155487 15.574481365173046 14.40922291274351
Li 8.059320332011675 13.985547744383998 11.711616707473432
Li 14.247647998836232 15.014711740793521 16.763023621790573
Li 6.1781526589113165 11.541149353197968 11.824054241732398
Li 10.626670486966475 9.950331726515605 12.750012689675827
Li 7.885302467259174 9.186349434426255 12.293119450676762
Li 11.215845764583268 11.149865481243378 15.479992400920965
Li 12.813669912512646 12.165050742797883 17.92821919633308
Li 9.109507903321164 14.530931472752476 14.549026663169506
Li 11.808301697120044 8.194916399534968 14.849472847246886
Li 8.486929434194616 11.77992411564889 13.878443769848277
Li 11.211006998225098 13.87239540704324 16.421537420840437
Li 8.999589639336996 9.133975257748371 15.186546728940908
Li 10.97334693217888 9.594396782535485 17.70992941146383
Li 8.973884601734625 11.896650427688723 16.925746175819835
