5
Energy = -4.97060823 eV
Li 10.902333289717523 9.689505506632807 8.012962038094615
Li 8.711999958835213 8.235812341252684 6.726107018155208
Li 9.616426282404886 7.9924952770717805 9.787741505847604
Li 7.793743624919163 9.85276567493976 8.97588963887207
Li 8.350518261555376 9.604442617534872 11.872321216462531
