51
Energy = -79.48163312 eV
Li 10.032468255641916 14.98881303062014 16.92453557697216
Li 13.155624574930762 14.966442709602475 16.708480526448835
Li 11.323281235209668 16.48039164458339 14.451647570873725
Li 9.093885690579858 12.25312450753195 15.732599024408586
Li 8.718538699410296 14.851578969807063 13.945494335881229
Li 16.36634087391199 14.924911028545855 16.54550914390985
Li 14.46774847326239 16.876572909959922 14.645728718604573
Li 11.78859783547178 12.291927774292507 17.424796825953113
Li 12.65100745214393 18.371684190880547 12.270929983343422
Li 9.838819609861163 16.811170511645283 11.608597067242716
Li 11.409037199785287 13.618145357905398 14.884299402388104
Li 10.653253563439712 9.590292322468086 16.45963172057388
Li 8.196037301104282 9.592518290705485 14.305291087902756
Li 7.8688889741705585 14.55834492943901 10.776048811588371
Li 15.091957265402755 17.04455960815422 11.447366785293607
Li 14.592907636525714 13.664408655058098 14.713127169963862
Li 16.658364852580785 15.227947796637224 13.503646604373543
Li 13.207464035668215 15.342253263334069 12.741018831390228
Li 14.969047506197109 12.296514370996476 17.21568182200345
Li 10.703963988585508 7.844851989660829 13.86189851323765
Li 13.219321629991848 10.952426324443076 15.359305429777525
Li 13.761406859927654 18.267280919007305 8.894237091414983
Li 10.689609788907578 10.795650380445265 13.881933708747498
Li 13.492815931006977 9.65258662744395 17.961671499038346
Li 12.361081817499409 16.36383476046371 10.196719882892332
Li 14.982583344928589 15.372900649719881 8.988942738814318
Li 8.69777909502291 12.109320053408183 12.429016430968199
Li 11.132267193134389 11.611355792887055 10.852164406414396
Li 15.868105026882876 9.70195470380267 15.739881869529741
Li 17.116978256977117 12.334113930007675 14.721631519260175
Li 12.767035360747315 9.485905854475265 12.460566019729539
Li 8.848507573608028 11.844439270804672 9.197020557317774
Li 13.135854600424251 8.157460555259469 15.340980037179323
Li 15.258630381667414 10.925481362056942 13.080172639524474
Li 10.657888294885332 14.21299684299725 12.04719270069695
Li 10.246214459203268 14.423047915910518 9.31362277815379
Li 12.836756394768598 12.44099358556021 12.84840163377586
Li 16.88191319281165 11.53650181611598 10.66954950733466
Li 12.94764453988339 13.687437556816196 9.958513624270783
Li 9.783516596635268 9.238460389515616 11.398839096537928
Li 15.225452813911177 13.672310561677762 11.58775728508489
Li 12.222736133733665 9.345527910366075 9.35714414252364
Li 11.605696775537231 12.178079957243384 7.916060294163056
Li 17.699619978934237 9.605491728321686 13.092253748318145
Li 15.137812371692393 7.985198515285527 13.325473418269521
Li 9.26867557671522 13.859856120029658 6.802540315625437
Li 12.674512757666784 6.990680002986978 11.579874267221234
Li 13.956218306021066 11.219124570661984 10.470521580971248
Li 12.371491085219 15.181954179987402 7.413795213540245
Li 15.286738409095637 8.844654545151727 10.525756514474143
Li 14.82477170807319 12.325678425362925 8.1746819280741
