53
Energy = -83.58077258 eV
Li 16.638400664363438 7.861516658410522 13.491776806527552
Li 14.599665123103518 8.656508406547545 16.005459143385867
Li 13.895306008565308 6.440679245198152 13.672520850489803
Li 16.291976385245412 10.816131451238432 14.557769209682293
Li 14.985810336273989 11.833350335510291 17.251047957720743
Li 17.437747536630336 13.466116289113991 15.77239981950862
Li 14.941515184470946 7.6912423051750824 10.777108050530462
Li 16.42742783526835 10.393547836667956 11.310259044241867
Li 16.945641341062046 13.361496071992306 12.52158371024192
Li 14.259237622028387 9.06240490950212 13.158234479287234
Li 16.427409402443146 15.999754574884088 14.161355542308135
Li 11.702922862764693 8.601111050181311 14.81592305489207
Li 11.736746017723908 10.660352203791925 17.370659055564605
Li 14.38773557534537 11.951688081975599 12.654148043909604
Li 12.280785655456189 13.673895632559026 16.3820589763412
Li 14.077052468522039 17.74606953120403 12.226204822154076
Li 15.233506293609146 15.032183593800541 17.242120885852863
Li 11.968617465836171 7.9077989752650995 11.612488749321033
Li 13.324962124543616 11.103135609193636 15.116814814754603
Li 13.536736030169209 10.315141562635166 10.466872568728913
Li 14.956226081470842 13.029378879648934 10.197788737413394
Li 14.88663756385942 13.639914279773093 14.937680394239122
Li 16.257687268417655 15.656758161597478 10.449244534063482
Li 8.899257022990838 9.773967544868722 16.248497081195204
Li 9.23313665331859 12.891032685052027 16.84668587746265
Li 17.41842823042692 13.041895957592986 9.203903177167694
Li 10.428032297321282 11.487412707427024 14.899049802647268
Li 12.867380118984377 8.710512882936273 8.465501231321452
Li 13.531130079597958 16.39706798239826 15.02646127058425
Li 11.82543135726213 10.595631836808703 12.647122714590965
Li 11.727403339111115 16.22475750831166 12.920141544559522
Li 7.634878105320108 11.742173486597478 14.145425891136618
Li 14.366502394891505 14.899126379972074 12.480310703735816
Li 14.759566338674464 14.175781610611732 7.806622420730685
Li 10.589037740144436 16.279756023466934 15.641684824569731
Li 12.127174093778132 13.034948881579721 10.684598133073303
Li 12.088177203381226 13.480044247038387 13.510603480700198
Li 9.583967462323663 12.17590290427619 12.03525744023394
Li 9.420694183286662 14.22046942674884 14.03252418420963
Li 15.327925234919725 10.883329829141553 8.318464950021689
Li 7.4105372468213435 10.933181843503677 10.921643468946632
Li 11.476060457050444 18.734280695560564 13.801282320548218
Li 12.478871670116414 12.00067046130191 8.16308690594202
Li 9.252892776717333 9.388032290166043 12.98465196947553
Li 11.1058548722785 17.770490307344705 10.599878883391934
Li 13.214760068729376 15.674942876631302 10.132422605061171
Li 11.192165830498325 15.016652860292275 8.290000756827197
Li 8.931541192783836 16.99503910202089 12.67766295408499
Li 7.5013692334054864 14.107266598755897 11.605706110746954
Li 9.15230685114569 12.986669107250014 9.21540711908155
Li 10.472011937507077 10.241957338304502 10.020650990393149
Li 10.21420014560666 14.989925613285545 11.041728575931279
Li 8.49425511485127 16.259007377744673 9.48584104338056
