55
Energy = -86.69775112 eV
Li 12.118929523938398 15.206705022615001 9.988929366563628
Li 18.224551924858464 15.038454376697725 10.117721326357332
Li 15.22494516582577 14.823442707397422 9.435336244249648
Li 16.38384389842062 13.284526851740875 11.750927380162272
Li 15.661489758616547 21.995425479561806 13.148041984859624
Li 14.610703143499624 17.638443739461096 10.688436479035662
Li 13.462798499809528 12.516967914418304 10.815809719005827
Li 14.011784240511318 15.022625614601541 11.9286597666868
Li 11.87121522768019 13.878351295366299 13.039877382199824
Li 18.23334229173002 18.126513553141354 11.134711393434062
Li 19.42958962064816 15.612572632851489 12.910235863956453
Li 14.214816433653926 17.459364243082263 13.62994131530106
Li 16.310588469824804 19.25944455933545 12.97102724350577
Li 14.667322145419956 12.235511592594825 13.769116216415195
Li 13.276945872207127 19.84403864402085 12.494744027751315
Li 19.144920249628697 12.675361607833615 12.241395565850073
Li 11.791312631945917 16.99659952080922 12.458551951879686
Li 12.335892351837318 15.71570156532835 15.38567284739438
Li 18.52358966892205 21.02711757144229 12.634265779875129
Li 11.85348523979407 11.068516238638283 14.19060326113057
Li 16.61267268959294 16.053720892087362 12.139479524442491
Li 17.689449211736548 13.953823881974461 14.416930859468888
Li 19.30069332794635 18.516097847046613 14.119422279991891
Li 17.12017291892867 17.023432992591605 14.672556105078128
Li 17.257666930534853 20.343238500756662 15.410615052551327
Li 17.461315789518366 11.187756061682236 14.870737431709298
Li 15.698657379496604 12.688531612239318 16.51627449877416
Li 16.504006813591968 10.87084095529038 18.73125008247028
Li 10.094593018130904 13.47571851516944 15.460802575296292
Li 20.299717003688617 13.080151440523036 14.976513410628513
Li 17.77270740570024 18.071289454313 17.348027035663467
Li 11.247165738902947 11.162045935179151 17.265380310881326
Li 12.055010092502727 18.56463728404936 15.318317908755894
Li 12.8206290640538 12.936236709094674 15.911689896632963
Li 14.2463423827148 10.296106198200212 16.282703245612655
Li 14.456676271519001 20.170732145090135 15.240552833339407
Li 14.912237258467883 17.631778718218893 16.33586575273094
Li 15.01145885013542 14.898351129052118 14.635799290296672
Li 11.446358256051427 14.32028647725994 18.136734510694595
Li 12.77705831464422 17.34583908401169 18.338437626671293
Li 19.520002207429513 15.81931555808635 16.059845349440792
Li 18.50744166097383 12.947728045787102 17.49978716445882
Li 16.877415730757757 15.2627893523354 16.92876259517716
Li 13.714463507048965 12.202727150966057 18.758120661376676
Li 15.160823263469824 19.550636238106392 18.43641673686863
Li 14.135335844850712 14.941906778366844 17.490991745237594
Li 16.193543702043915 13.66483119125449 19.304869127242316
Li 14.321475192631231 17.792637771766326 21.16021467808592
Li 18.275190777863504 12.71141973640049 20.719356684849274
Li 18.507989023041972 15.531040721263455 19.277860581876073
Li 13.640178379914328 14.829145189179284 20.386885336178
Li 15.682768318785406 16.66434313323918 19.126029511909987
Li 17.30678310991859 18.201371389748264 20.570419560309492
Li 15.266932561472684 12.250116922112436 21.471610951156148
Li 16.431515344700074 15.29220395815159 21.625247670059775
