54
Energy = -85.12801099 eV
Li 18.32106336266402 15.906501273493342 10.762516634214615
Li 16.78990777979025 14.818412460662651 8.315047928498975
Li 11.758142407220417 16.83353364373261 10.438472675562398
Li 14.68695055680826 17.92251628084478 15.839548242557656
Li 11.31208014215373 13.93525136951278 10.817626867308478
Li 15.285876580414227 16.958525298722464 10.267800619726431
Li 13.231967903829037 17.935024380197003 12.97051741896063
Li 16.127268652979026 16.40804182103528 13.257249795100245
Li 18.32719113217723 12.768720307026655 10.122537682882408
Li 18.061632664179175 13.915667943869002 13.281270379743185
Li 13.651279596065155 14.630198869024493 9.08396197371286
Li 11.445368549285853 17.546968450089505 15.526103811916009
Li 16.18545246280266 14.273385467450165 10.957522514079697
Li 8.956577892259428 15.473492333651782 11.307463555664823
Li 12.396564868074796 13.149659458465209 13.61682066667089
Li 9.072928350941941 12.369881410643517 10.043491754021225
Li 15.479354312312827 12.062325907472474 9.086722655681127
Li 11.172407340144145 15.76033370284301 13.1380256180606
Li 10.29322838457969 14.827808904028243 8.431177859461467
Li 13.616309589036275 15.653039437557267 14.836165819327086
Li 13.71202631014194 15.210428289500456 11.932576450151297
Li 10.012699974070202 18.21661309402337 12.782907467803218
Li 15.293520703087042 13.56058486623149 13.732700629397263
Li 16.485784661209266 11.531663761636059 12.223270864941087
Li 9.78919899470884 16.04359299532756 17.834690926263935
Li 11.965739884391283 12.151584868260212 8.528624204219039
Li 13.845897300494164 12.37760239416387 11.270971604300813
Li 16.679304939780057 11.859503370506031 15.49110975896243
Li 16.093673239797045 15.019684352037023 16.12094933126226
Li 11.403404834286421 11.098218115292827 11.144769273296463
Li 16.37327962702832 9.303306187622482 10.272276418935327
Li 16.35362602839006 8.934495735477105 13.679190159495993
Li 13.710313208746022 13.086855204918834 16.367528326796
Li 13.079726362136192 15.865425503768144 17.642239724399985
Li 11.090414669059736 14.592125796368888 15.861159358198218
Li 14.151517622409465 9.66887714143771 12.078356944046227
Li 8.795679043779238 15.873283903928249 14.709675149854311
Li 9.147253112908093 9.764147355087708 12.181690165043646
Li 13.437272526259745 9.689141643774265 9.451557604680184
Li 9.631781613485813 13.00256307197355 13.2274861384104
Li 10.964341278918866 11.758512634830378 15.849017101215221
Li 14.184314198438955 10.955074433305143 14.498690803641143
Li 11.303599502612894 13.21212101264339 18.355653387378958
Li 11.586697900250678 10.283625942677387 13.656702212739715
Li 10.475714679327318 9.321681471204522 9.156921271996582
Li 8.476029450360842 10.839960035744662 14.99910292214984
Li 14.699112264421904 7.061670032616374 11.588528332231842
Li 13.424503942740909 8.074023374470539 14.418748683966703
Li 8.668530085502939 13.384989652603187 16.715925079885558
Li 9.641729671360325 10.51673554016734 17.870887057472498
Li 12.870054183240644 6.9887611220519545 9.06284682938218
Li 11.758091528043973 8.059851538158055 11.632122240056239
Li 12.81725270432844 10.109221920387544 16.976199419189594
Li 10.403407852446614 8.637509714940979 15.456216683566975
