50
Energy = -78.38657331 eV
Li 11.84509651475567 13.74278832712203 18.820713847298137
Li 11.145337549289028 11.678017261546529 16.70031536218429
Li 13.178732019139863 10.273032464517627 14.238284031365117
Li 10.619092757539926 9.06582989884163 15.375929402727836
Li 10.685361393389496 16.510417744487103 18.34928226533299
Li 13.775873437322538 15.825221852794696 17.65089973323268
Li 11.569278798412432 7.5742396385910205 12.992773138866903
Li 13.879326703019899 12.850717424245623 16.50692083756672
Li 11.399526935411332 14.928370401749689 16.28590297647728
Li 8.452011961849548 8.73848737167712 13.126037056344558
Li 14.802282730519723 7.925800282274515 12.925527908148778
Li 12.008461856860038 17.684031038605454 15.706679127385394
Li 9.10735931387803 13.818048252573842 17.25084792678406
Li 16.50259206736689 14.120766154642698 15.542603444053388
Li 8.788675712273509 11.29370882414733 14.877051233456191
Li 17.677896681012815 9.357755203747496 12.155526037763682
Li 11.640448195710865 12.891706973361174 14.270039215607316
Li 10.58918671887826 10.416112220139308 12.786591927046397
Li 16.16559970883148 10.70722431620259 14.81846251347703
Li 9.020828758857917 16.60994226677652 15.716604030466439
Li 12.956398192242382 6.561548893585614 10.463461615113262
Li 15.457193018872125 8.497310688755444 9.939943826160093
Li 13.815140445499104 15.452556756024212 14.763057687205254
Li 12.863582817703984 9.18478240128006 11.164776713422219
Li 14.698295759545662 12.90488056428113 13.760268474224567
Li 16.98089560209017 11.325964242959383 9.729784338610711
Li 15.940029487090348 15.40721695105209 12.59452852326392
Li 8.970123327879216 13.99048550383406 14.163140778628167
Li 15.309320609346063 10.582752013494003 12.000325935599877
Li 10.179030318798459 8.388574785249448 10.526437489190583
Li 13.972173660859783 11.11633383403451 9.222952518485286
Li 17.387854318119317 12.630064448063212 12.600371274551556
Li 10.87613940563625 16.034975157914634 13.459358273328387
Li 12.462720192188575 8.832169623030238 8.322466636365014
Li 8.255351868018801 11.782135094692256 11.680213106471873
Li 8.368256303290222 15.263730256788115 11.539646934334314
Li 13.038173713796057 14.732644896526633 12.130647447037871
Li 12.811915879211726 11.933101197938367 11.802082480675315
Li 13.353623393040138 17.50422382608004 12.577604336024903
Li 17.32004512157393 14.483158478074083 9.836519821013331
Li 15.11585150402288 13.272603458759342 10.80982723641249
Li 10.434629608328981 13.484651458778746 11.636572195867712
Li 11.18594068393136 16.12483782146823 10.31744665962474
Li 10.91445921693084 11.147762428512307 9.773641106491054
Li 12.046016605129966 12.146504778651911 7.08553607456773
Li 12.476238825535502 13.641283728033189 9.41591567168544
Li 14.893483034005225 13.599481938370117 7.857423489123022
Li 14.300484400939693 15.959559445859584 9.811835884284855
Li 9.660043835676625 13.827317047146346 8.85303898295159
Li 12.184545274551004 15.318515861707336 7.316931358973782
