5
Energy = -5.01690899 eV
Li 10.815014782079416 8.031996960067138 7.512562826886213
Li 10.538436678807308 9.740823034163183 9.817832768028113
Li 8.09223760979662 8.903332924555897 8.533877564921276
Li 13.272165746970764 8.991622750226393 8.89915057406323
Li 7.935996642434378 10.313588874109383 11.14265596241082
