52
Energy = -81.8257229 eV
Li 12.752902978182554 15.078728509994727 15.115475132635199
Li 15.62592265615701 16.08308094498122 14.556773698779878
Li 13.379118183288226 18.05203148377748 15.474344646313924
Li 14.384648103135298 15.624535499373652 17.31276861107768
Li 13.892184670273757 18.099898564197403 10.1697600989289
Li 12.429841819525524 19.629046935849644 12.78719039230552
Li 17.249360024760126 13.543010091274313 13.613869632414453
Li 16.03100491697241 16.159604737938626 11.432002447355458
Li 13.377479551798908 17.01580682552362 12.79395440521587
Li 14.481900054538109 14.292475845510692 12.643114393143698
Li 14.758067837143956 13.036522479484054 15.382327492692019
Li 14.09895731678294 12.604962075305767 10.29207092230047
Li 16.76904232105419 13.17798334989491 10.591352779681557
Li 11.396178460178517 14.700404637911042 12.601629149918796
Li 18.027415205967856 10.737219939515377 12.242399742407963
Li 12.744999323504468 12.206994021789702 12.96565121455577
Li 15.041097340995329 15.225714162408613 8.668205011299483
Li 12.163912031823354 16.68389946259749 8.061340402240432
Li 11.358981088273369 16.436323450333486 17.105866451995393
Li 12.277041474426277 13.525806305669084 17.707300090272696
Li 10.763345750460712 17.21915103501875 14.077136962619429
Li 10.992633552659179 17.455713714835127 11.050201106035997
Li 16.73430109050813 10.536799417477805 15.151261626908331
Li 13.692632028668296 7.518905124794811 10.48611731346483
Li 12.95581454698447 15.371865423144552 10.375265898376101
Li 15.489489622942841 11.50018565264028 12.74599458775469
Li 8.740495357373321 15.122721593038934 12.537521539100654
Li 15.005421666237789 7.949566615958886 16.16389843879649
Li 13.952351274649812 10.010906290874946 14.697745135919552
Li 10.093862277945936 14.880441752913907 9.649262841284619
Li 14.219319790215813 10.845426007610676 17.38927742021467
Li 15.664374513433843 10.074761394460225 10.198206405165395
Li 15.342967548903665 12.097474642241442 7.877974963307628
Li 11.322451812779248 12.590473893000755 10.573090481847967
Li 11.975628874793156 11.901863721966725 15.49150049702692
Li 11.096178571440593 9.59703485587741 13.721099519358662
Li 9.952277907752768 14.199033868404179 15.289879277512984
Li 9.91900512391378 12.161057273564857 13.223204753023602
Li 12.496503694832963 13.550122066750916 8.03311855702125
Li 15.685780500277968 8.515770615000495 12.937484562581242
Li 12.981606727823216 7.3436698069516595 13.85922404286958
Li 8.338142110052068 12.415600446420298 10.992545651525555
Li 13.153531903244174 9.800928638141388 11.788219047097227
Li 9.311380117637265 10.638316000248865 15.745794071343367
Li 7.407299522349607 12.617883251586772 14.02797758074637
Li 12.013129706258047 8.87997945977434 16.441342118189286
Li 9.867994625177554 11.82762692714266 8.286975886148896
Li 10.811997475852557 7.419220937460893 11.828898728310287
Li 12.797658235994017 10.365920812261981 8.887105572239204
Li 10.363238518139037 10.082444775287957 10.770588940273324
Li 8.310978619853866 9.69686687202263 12.964254715264712
Li 9.818252149733716 7.428279600462189 14.801866185944025
