53
Energy = -82.58227364 eV
Li 10.50778817812698 8.032060197035062 8.540814266756847
Li 11.069330680483658 6.026765524536379 11.052844202538985
Li 13.449930011800067 7.239139157122188 9.563057795049323
Li 8.681709475000146 7.95915612553514 10.98621436070153
Li 10.270015525565944 11.551295752500746 7.356722605919442
Li 12.564105868425743 10.19106109881848 8.77273060987754
Li 13.038208719328306 12.678527124058695 6.668827480482175
Li 11.53313814627267 8.6770176382189 11.126409952032175
Li 10.27847872790831 7.297640543407725 13.807426955622624
Li 13.442338504016899 7.49573751904666 12.991114908446823
Li 6.896753895725523 11.383028957247541 10.857546288521416
Li 9.695135481407313 10.592308108600665 10.065500999987437
Li 11.05588033091422 14.940887576842792 7.679295566973315
Li 8.733186941928327 10.0083988213909 13.050260549553466
Li 14.455702949077846 9.701209449739443 10.968016037581696
Li 14.81047045956148 12.19209689399997 9.128475705417133
Li 11.97275552306542 12.972522217387459 9.257634142615602
Li 8.735962226697904 13.458358158180886 9.17462813741042
Li 14.181917534304636 15.12945010069522 8.303960499377427
Li 7.5726830321450915 12.57156542615087 14.312848930229324
Li 10.34973494218886 12.147903605579097 14.193933101852199
Li 11.416918940674517 9.704475639329363 13.670034388662039
Li 12.011013122830764 11.716058755526774 11.726106452238627
Li 13.98628232469848 10.387507138376042 13.554554372975067
Li 7.5162515736654925 14.815253171744006 11.70300239487892
Li 9.155888467919809 12.62953453954316 11.876944507441877
Li 9.041185800841037 16.457948461273393 9.524728908768084
Li 9.997879904593502 10.179208989625685 16.119433230964933
Li 10.681680257818451 14.892937393567879 11.15486222921826
Li 14.700999323084446 12.599508482457196 11.875110097303711
Li 16.97342484315664 11.028106973335952 12.35210703644829
Li 12.97726463622625 8.909807348640065 16.017553647174942
Li 16.024555080843104 9.25488055347727 14.818607881040093
Li 9.602906293713653 14.860199559641917 13.913946124500779
Li 12.726830495761018 11.714472445386143 15.584286843555276
Li 16.435260848121526 14.372154172984724 10.532514686157842
Li 13.547118966474478 14.837686407920334 10.869962450014746
Li 15.606411112601322 12.464465633637005 14.532598447942997
Li 9.842814356280146 17.34363763940224 12.301006800255323
Li 15.174512399448627 17.152295864934484 11.174277685161838
Li 12.07803694772411 17.122089858785376 9.842143625492461
Li 10.554468076189952 13.444140308991113 16.59245647509552
Li 17.790348572741614 13.85540427367188 13.25979072609395
Li 12.494505368500276 13.902969640245287 13.630814610963789
Li 12.262146544112284 11.319636670074777 18.179312035466268
Li 15.212123856026283 11.30541839227531 17.035548504566417
Li 18.01972990175056 11.642311063028055 15.424850537986872
Li 12.732175472480272 16.835128538538513 12.805116230686627
Li 15.190724924548245 15.110376012119222 13.392941255722043
Li 11.741407470548966 16.19230940618118 15.379421073708974
Li 13.80390088817961 14.233264195310793 16.336539192478273
Li 16.792184069186867 14.517054601654111 16.0639114507519
Li 14.756861263446872 17.14572390215963 15.14176323708471
