55
Energy = -85.6105219 eV
Li 11.692784375393952 11.139935400813915 14.024575360576348
Li 13.379943771962177 11.647470054231047 11.640801944520636
Li 8.699276744267815 9.335198515157535 16.314551882060247
Li 6.91517951609814 8.905569830485623 13.85066793176256
Li 11.664363101743973 14.047898616944655 11.937600460629069
Li 14.816686507561013 9.155804984335614 16.147458306059953
Li 10.302410412551858 13.678202056812726 14.429768838658195
Li 14.978187765513873 9.289125368873401 11.130595950169889
Li 10.327469431092277 11.965423263855024 16.665672054255015
Li 13.520396401390101 8.847302051297094 13.614841930519306
Li 14.820680563342995 14.07386343929554 12.219383208782796
Li 13.244863462767917 11.837554399783246 16.656128283623392
Li 8.481454418966095 6.500938073904393 12.821682202755056
Li 16.606999186347988 11.754989759332648 11.73456025138804
Li 11.633627575824747 14.620680030091936 7.4133643720229285
Li 14.905541001579119 6.545574661720638 12.930776933659416
Li 8.321402118916863 11.946680243095487 9.309350869759871
Li 13.167593938263467 12.112105300684531 6.897563978563439
Li 9.852166506230917 8.850344686758264 13.658317178986614
Li 10.197476660850782 9.591837221698537 8.721615735537227
Li 10.043273002318951 12.144401381081453 6.928811018563795
Li 8.542149762260491 11.41160946887576 14.198495905258872
Li 11.639002003609628 12.13754218099897 9.33772533949206
Li 8.328150057123686 14.61703034605666 7.319077949608165
Li 11.660501582296012 6.707088169657911 12.981941057338675
Li 16.485610662222467 14.529512952140946 9.788586835699219
Li 11.599489328195606 9.631702140180074 6.1102294997671995
Li 14.882173865820484 11.381020544410125 14.109054207589091
Li 9.801160238531152 14.433483886483991 9.643608918414538
Li 14.882916381439586 14.565710134566821 7.197604624777092
Li 13.080730840770638 13.598092683632506 14.459997071282915
Li 6.718812638412747 14.392009752988331 9.900884572831805
Li 13.068896979209903 16.262465845228416 13.542694566774466
Li 16.581695092512867 8.996373309652864 13.641037721371704
Li 13.099303743083098 9.597252807156938 8.714737188553427
Li 10.138282145867063 16.321283794498235 13.488588477985772
Li 9.95831621888778 11.627035886960533 11.681559210877689
Li 11.704307829144682 7.159967638542536 7.760856017855091
Li 11.62551730773795 16.578188678340638 10.748007172450842
Li 8.491650742799429 14.048927419701982 12.235827973657926
Li 13.485264627561667 14.451093884608056 9.622429503782786
Li 8.515656271998713 16.6998189166741 10.813354318118929
Li 11.675144566416682 9.295094334254799 11.330974598420584
Li 14.961143145668519 11.986429304137145 9.231097044662432
Li 14.68982312148595 16.747151164128777 10.915781801084746
Li 13.236915026080329 7.011136015630116 10.43648463833841
Li 13.21788817679561 6.643712841826177 15.51019815831438
Li 10.060017006953393 16.997791333096032 8.227047367589694
Li 8.381337152172932 9.244795122909347 11.191533548373354
Li 9.951167107858259 6.7003791381314874 15.50652667149089
Li 13.301641734730655 16.981058658324493 8.24471247525898
Li 6.746526262938913 11.667127473651746 11.87445346180051
Li 11.717260238129976 9.17597116429485 16.025393121797883
Li 11.711592614489131 15.070204784943899 16.452925200367325
Li 10.16099656380875 7.013856383060948 10.381302586157759
