51
Energy = -79.7094966 eV
Li 15.184790165474704 13.834397614304214 16.418396441931655
Li 11.84390261810647 8.181615091269043 17.103266243236575
Li 13.722940450007886 10.78632730893543 17.40111575341614
Li 10.835826357374616 10.835774429575613 16.01037316144447
Li 13.608073741867807 16.714743933704057 15.73135482619866
Li 9.52943954281596 8.158439187865927 14.987145357290972
Li 16.6486458044214 10.895253055843552 15.957065740335272
Li 12.212888456564334 13.572825826975096 16.178945792581725
Li 14.645206094132439 8.259032505237744 15.757657784823284
Li 16.368720330753863 13.105177332444242 13.846301319811554
Li 11.636354137063476 18.968744593481993 14.504311845534989
Li 9.59496723889479 13.122967101017945 14.534814772326994
Li 10.697861290308756 16.023142968478655 14.941785345649494
Li 12.407866133592602 9.108358475181774 14.423862260781283
Li 12.177896991801825 6.390560311500454 14.680779527775927
Li 7.740430772662163 10.822095138988105 14.871263864028908
Li 14.142643449761163 11.528659564117484 14.907980100283963
Li 17.3608980807455 11.512665153472282 11.571816720079935
Li 13.589133509006617 14.416511975218242 13.890077412943697
Li 15.497059274578445 9.759626537707089 13.283671982226204
Li 10.753637093402164 7.6559534423360684 12.174420937145532
Li 11.984129735149542 12.150759492048229 13.429070068144744
Li 14.620744338449361 19.00478639583028 13.668272223853933
Li 13.845895355576719 7.435497817545733 12.27926073802792
Li 10.809962205069162 14.750348376945945 12.479224219704712
Li 9.922161803419163 10.302659769297865 13.216471642888607
Li 15.198096779103857 9.62700589010053 10.273098192295311
Li 15.764317912009446 16.120741976822238 13.70572837551854
Li 14.608261768889598 12.142331262795123 11.866495896875586
Li 7.983235303158959 15.177445407079983 13.302475655422459
Li 8.264670998971443 12.246665883801677 12.060633789979438
Li 7.714638820928802 8.839867904395456 12.425781181996152
Li 13.29593668172295 14.481302759052332 11.012275649604836
Li 12.791564166569323 17.015676889997703 12.93171959340355
Li 13.226820963069056 11.672357550560147 9.357523429316961
Li 12.617990174076905 9.998314013245434 11.782932630145547
Li 9.122746772362708 14.895520474086926 10.348356984165955
Li 12.432947246899145 8.52907961809685 9.44077687627328
Li 14.74547599046203 17.30214517933807 10.95720250093347
Li 15.821879885290697 12.503390526221864 8.956206354901209
Li 16.248371047857248 14.561061599959288 11.130530755026887
Li 10.955704422571545 12.407261218220553 10.82096230605997
Li 9.912973617661487 17.490207028726548 12.331365815622354
Li 11.56812173317319 14.093621633812928 8.56994055831224
Li 11.811936249473924 16.702426840161028 10.078248759790494
Li 14.45145038750011 15.295721530546178 8.566560157265306
Li 9.844131619114098 9.876530938533513 10.372174687129823
Li 12.432417696002759 19.361201569671863 11.523285251187877
Li 13.660861782427224 12.890903440447 6.794393103044971
Li 11.162621552851558 11.015829521356933 7.779240589938116
Li 14.271046227271045 9.979244275486733 7.372247278327746
