53
Energy = -83.70524093 eV
Li 15.795718420735124 15.514888879129833 8.798734809334952
Li 16.826147426518087 12.663287040212417 8.106132133042465
Li 14.542866993799043 10.358529940972215 8.259180938086217
Li 17.091967750326656 13.89814460040367 11.014833066998106
Li 14.013926521011598 13.09052388311023 6.852908298031247
Li 16.515314647841752 10.82995015103125 10.615402640817468
Li 14.204894209870169 15.127689778936356 11.603045063806503
Li 12.968343195946277 15.478671062266702 8.351706712531016
Li 18.012106101055412 12.073507652652694 13.293748098400266
Li 11.947731037971096 10.67628857457708 6.441976486145792
Li 14.574913437827059 13.117909140965756 9.670289418122122
Li 12.47668981076393 12.775908496148178 11.979723393002743
Li 14.58306569293717 8.134258075607187 11.00147771628788
Li 16.195788767900478 14.674851798683164 14.051127242459716
Li 10.76169861034315 13.606860092003531 7.109603121149158
Li 13.567135225423579 10.591200431143001 11.01708376941394
Li 12.18356830911757 17.213747119179377 10.956789351327274
Li 15.327739421143994 12.371157830116067 12.641699203692825
Li 10.088952443403615 16.350182913788117 8.532250467937628
Li 11.901943741274197 9.002100985875717 9.181020505343694
Li 11.379333697172832 14.492692942191981 10.213904820495975
Li 16.177825429999356 9.539813958028667 13.498579936827078
Li 13.665196369702123 16.62750322756326 14.30500967383487
Li 9.425952262087387 10.754356853541209 8.380381556772674
Li 12.04427622157516 11.975510240652564 8.892116377889566
Li 13.391822722537457 13.61610975510039 14.439475391185395
Li 13.870847894247584 7.519487079548038 14.083011396817646
Li 11.45757512026553 15.347881924151125 13.212018291883213
Li 13.616283878548783 10.326556827773148 13.87444199685513
Li 8.94187430885245 13.479448551701783 9.60291849824262
Li 10.407795251928613 10.95428147119197 11.063577711002692
Li 10.772580369940773 17.91814059128465 13.756256021184761
Li 9.297362786510856 16.19530884327158 11.534497751362414
Li 14.66561189768149 9.299957807767193 16.542464861892473
Li 11.689614573870823 8.703780315268851 12.347443386672287
Li 15.77894397762573 11.99610199540984 15.540907709879477
Li 14.248638043856737 14.496908900534063 16.83097317903462
Li 9.072649586408243 8.506880687287822 10.642114229626463
Li 11.04810257274797 11.319424351816684 13.994770924684888
Li 9.591993231650958 13.36738639849618 12.516660152679966
Li 7.717465970507058 11.22908668385776 11.495345946899224
Li 14.777089892812832 11.887992759787625 18.483975118407376
Li 11.624353263854276 8.935528138687049 15.662784536460274
Li 11.477145755936087 15.973236411614764 16.4083348390693
Li 10.746707206172314 13.505560813699361 15.577072704986051
Li 12.94254640451388 11.572848788645024 16.440564216670204
Li 8.891419106402717 15.507945851234128 14.652183068601348
Li 9.06074333015661 9.509552863458168 13.697061762339132
Li 11.811994064180919 13.268213942684158 18.328054575244295
Li 8.182777699457722 12.349182669913967 14.801252401089418
Li 9.948214474772021 11.104793656742013 16.911163983394353
Li 12.331116612735828 10.00978088257591 18.63361809783406
Li 8.889488002762336 14.052677822788453 17.498319324403084
