53
Energy = -83.25014477 eV
Li 7.812620861449999 14.905730994661994 15.015667146376877
Li 6.273849212188409 12.259654733506357 15.066187306871742
Li 8.340360964135584 16.637825653351598 12.46007286691387
Li 6.329686581999661 13.908887643624771 12.399310783675855
Li 10.110819644418942 17.069132551853137 15.000659649534175
Li 9.174646463288527 12.323647358472172 16.01371647262947
Li 10.828291460125879 14.623672488807253 16.871200001456543
Li 6.037327992952697 10.638246138085213 12.544778479247615
Li 7.377346838297157 12.033206985272896 10.190426416648574
Li 8.342836608054958 12.129434111897249 13.119442570814037
Li 11.880155144177277 11.353060211855572 17.114896841117055
Li 9.15647662951699 14.261977375237961 11.274176428731506
Li 10.236611664427839 14.32348690785896 14.100184329362461
Li 11.228566281552977 16.187027755089904 12.35582249199496
Li 8.068645211202734 9.68586468333822 14.802122746437117
Li 10.247487894586234 16.830608781159558 9.747123821473958
Li 13.04910028198659 15.812641606845656 14.74527154283541
Li 12.545525298182143 12.940775186629704 15.083589245256894
Li 10.749948925014985 10.718271241041203 14.234806913321783
Li 13.908719557927538 13.957491501496506 17.296391429791772
Li 10.142269109722708 11.678986257996309 10.196090021346453
Li 9.28259682604601 14.19750174588042 8.420781882264752
Li 9.022120988706453 9.496939491822245 11.820631140677714
Li 10.551921141086202 7.873706364127087 13.911726001422862
Li 13.480623824084686 16.692231911069413 10.627345802285422
Li 11.759814491937876 14.31043012919963 9.988155432278925
Li 11.378117578723199 12.523143308518367 12.328560332037103
Li 13.452798519544128 14.206369496147198 12.31941498859816
Li 15.263837466731582 13.664994748460371 14.519076947894172
Li 12.341973428538537 15.410916083077423 7.657873552073668
Li 13.769755489083177 11.13523519683366 13.175334491420802
Li 11.97919198554397 9.459952534814578 11.69551934561295
Li 13.019102753303788 9.24571813809361 15.106092888090881
Li 14.9792583265676 11.292773663656018 15.97211013863364
Li 15.815971599027137 12.330120185461757 11.774649437772965
Li 14.901056082811934 14.228305662269321 9.680552258289676
Li 13.268905634780984 11.720710611245298 10.06274007306452
Li 11.51328644567845 12.24422719414693 7.7783523751451025
Li 10.919110878501039 6.911653464418936 11.052297470717212
Li 16.21833556647612 15.241721790886622 12.264080109277918
Li 11.208387969399018 9.225619544813426 9.032005984245776
Li 13.664888107451977 7.526351611340825 12.757544701802408
Li 14.262598484908631 12.827157093858874 7.2258705140673225
Li 15.027558527589143 9.496357099823086 10.860403989819005
Li 17.762784670366795 12.326485350230154 13.629579059996088
Li 16.035905470132395 9.530889197604175 13.607277312016539
Li 13.722276266090153 7.354740125974146 9.71017827528563
Li 18.060325500730308 13.3744716686295 10.61711825324474
Li 13.93089514951054 9.897436910584235 7.964825761073236
Li 16.243660136569297 11.49546562113766 8.99821540963096
Li 16.487994573427628 7.212441296221594 11.50967378806293
Li 17.818303010970258 10.179065892868135 11.213389006917048
Li 16.559131430175814 8.464868001141609 8.722455388149681
