50
Energy = -78.0110465 eV
Li 14.26923223294135 10.351993826662897 17.579464896735633
Li 14.1698237839087 8.38560199804701 15.054052417298488
Li 11.586368281889822 8.939481821378179 16.610721572673302
Li 16.04116921088803 11.057120111369887 15.025846729876807
Li 17.8143572209216 13.006950920203714 13.084040147615847
Li 11.445547073237215 11.880825933892167 17.72225349396268
Li 13.934775721422783 13.296048876881011 16.62652841946502
Li 14.132028134509971 9.98148302720298 12.599962133726224
Li 16.201371683949294 14.227161042478174 15.277760709913757
Li 16.569381720271345 10.85394107330308 11.251529576947235
Li 12.906987371525576 7.324527865807852 11.966174054290988
Li 13.052103320874387 11.031381718020736 15.19865220036499
Li 14.535610813067276 9.027481794138325 9.737090070499171
Li 11.442978373804989 9.188765024729191 13.658445623942214
Li 15.671659786476162 15.71509147404824 12.79876715130321
Li 13.912337255108126 16.513082131429947 15.519807277704093
Li 9.58764753393961 10.921008375962701 15.426477822343005
Li 16.2936977877506 13.705563136302029 10.464347678025009
Li 15.054707908455862 12.761844901983956 13.001887852147732
Li 12.006460392658147 12.172310727925547 12.477688442548573
Li 15.51438264955208 11.64827830725933 8.188381389342638
Li 11.616676143307194 15.025417616804766 17.08114748995198
Li 13.178895230149374 14.556129009563943 13.970383970271952
Li 9.854238990585937 7.993696601530178 11.172236638610457
Li 11.183912351910804 13.13739840602859 15.170714119129896
Li 12.784448368284378 17.043327296400754 12.434433404571621
Li 9.48073794905303 10.837183181642235 12.500681828562378
Li 7.0247975605178015 11.38945593703539 13.773004182452173
Li 13.541747586920817 14.642473652019925 11.073959689184793
Li 8.534123728655981 8.534809528809344 13.887091322408985
Li 11.952454250569353 7.485306749825207 8.942635259368972
Li 10.711295880090598 14.572834950688604 11.474128853591983
Li 13.907975569363607 11.93873839253428 10.270111014349999
Li 11.845065349389838 9.741826674789575 10.666311944096867
Li 8.77615800730154 13.689700178404914 16.492136857325974
Li 10.652338867992258 15.910228292373898 14.394279799681158
Li 11.97142374561583 13.428808195088923 8.696371330855529
Li 9.021365904218541 13.465290287373291 13.577646157503226
Li 11.844936849326926 16.352556909297583 9.363880295942156
Li 9.943068695030858 11.848474869989714 9.878865356103443
Li 12.462249216072658 10.444071453783918 7.974771693867649
Li 14.357227385936156 14.741967476573842 8.223563102856566
Li 7.628695069833171 13.011789388824338 11.069638155491932
Li 7.495309680708399 9.948334082587982 10.873895763651879
Li 9.234480315653252 14.491971956114558 8.659300959948713
Li 13.240736582794563 12.68193871217369 6.225572750402385
Li 9.56257596326735 9.441831938205524 8.475030233932427
Li 11.464412261409644 15.10231652605955 6.54777579521037
Li 7.565835878424478 11.815502689435094 8.312402772944889
Li 10.196913194928584 12.185376233101913 6.788132289881452
