54
Energy = -84.50754967 eV
Li 14.543185764824408 8.048091348578211 8.93485291876765
Li 12.711740978590493 6.825527557876815 11.670820659359498
Li 11.363475540417936 7.72294105110377 9.1355401445425
Li 15.269529907683015 8.202257297635455 12.241166740319533
Li 12.208468563439071 10.07306458406383 7.5274700409082325
Li 13.882702651228023 6.765932773064827 14.698086426365736
Li 14.634277806479009 11.276561321848135 8.510125453499306
Li 16.42210086476563 10.314302685825645 10.498911420682568
Li 10.824035218965719 7.02402379968846 14.349716047904996
Li 17.208278012232636 10.388771549975536 13.455255878436116
Li 19.01914534061845 11.849222760919112 11.427872257973895
Li 12.919415674327304 9.694225403101472 10.380310788675263
Li 10.315911120835468 8.752386976401732 11.90572005930694
Li 14.903662866564984 9.636700605360735 15.250370067604084
Li 12.613089089975542 8.95252153400658 13.54762491017769
Li 11.772913760637726 12.64974570559299 9.112067818556959
Li 10.063111849268166 10.604307383245635 9.738163976857441
Li 12.175519519230521 9.03528283017287 16.41483137288994
Li 16.94715957472983 13.135914913488651 9.349339417050878
Li 13.96696961040927 14.270244632242836 8.084847187914859
Li 17.961650730880176 13.247624742136798 14.490843021281947
Li 14.41159431369242 10.89658808675994 12.590440428060901
Li 13.984599051232895 12.911544099170888 10.72849319777853
Li 16.514880541491106 12.851109236264698 12.106745512967356
Li 15.097313684552475 12.542992704940813 14.694914564875441
Li 10.770467310318214 15.290343671315403 8.335151348077938
Li 18.32448494549034 14.85560601793723 11.729224827602863
Li 12.46164534487606 11.594038184095988 14.9628162785208
Li 9.942607116955283 10.214677913651112 14.53464237989971
Li 11.583942793616682 11.51368026189346 12.222240477281664
Li 15.414744092887345 15.38224730263074 10.64765980956187
Li 8.536575389469869 13.316730073728225 9.48693967685873
Li 15.226563219208291 14.568729418815487 16.474397091035637
Li 10.401799826839929 13.864916031392113 11.357429446133454
Li 13.749862130869719 11.721312336803202 17.411873535637362
Li 8.594794388786067 11.694253505238263 12.314536174080688
Li 12.459882722309722 15.501084797085728 10.492106255620119
Li 13.005294859873661 14.165840926219023 13.223450340560376
Li 10.505812173812405 11.661931181765278 17.07814918718193
Li 15.725047906909186 15.239051615292277 13.580848920767393
Li 10.024594195757908 13.667249469046226 14.500364916650936
Li 12.236381881592479 14.144549673598409 16.354533228283195
Li 8.973053077334509 16.20448310691632 10.560077866419574
Li 7.803588038229382 14.540458522179037 12.572606710631046
Li 7.690645026420892 12.493629439731397 15.363674093551333
Li 10.801306269707986 16.264198766858055 13.027335641038402
Li 13.62217794236173 17.32923628749287 12.371581406037432
Li 11.089665998454315 18.170350585923533 10.844739882753776
Li 13.201276141053075 16.54895015523879 15.085220915249394
Li 9.29225643517038 14.341467798854447 17.338768295900877
Li 7.721392236314411 15.590972930717413 15.188954181203584
Li 10.316414284859368 16.711893996375167 15.781650958667564
Li 8.527349540797367 17.81738141376604 13.146821856100333
Li 11.380051119589972 18.890023908329233 13.891081090975954
