51
Energy = -79.7790705 eV
Li 7.156476975010107 11.199016398839966 14.37636987115838
Li 9.0755806870183 9.935231667953992 16.743083978827666
Li 8.672742737103324 13.451407975438268 13.211275228843915
Li 6.742067510639209 13.07957828396032 10.893621214705533
Li 7.975766979071273 14.607364407982939 8.372224318400397
Li 8.34518138914577 15.882379496606147 11.331368341711848
Li 8.899044540826909 13.08632610189446 16.27344541884863
Li 8.873598658536073 8.536538814005754 13.817386777365682
Li 11.734095835400387 8.89492688640626 15.320047447411087
Li 8.576199977044297 10.809394675732937 11.710393529055416
Li 9.592296232595071 8.546708917268427 9.910259686819199
Li 9.988168569732135 11.048241975594994 14.500768768476679
Li 9.418618633037779 16.039217179409217 14.577708750311734
Li 9.458010995509577 13.428756385566228 10.315818525440406
Li 8.363339235426672 11.353989275257637 8.591431493487754
Li 11.137867130948207 12.329239015234137 12.352675126254558
Li 10.928443891731986 15.864897871348889 9.476950327777129
Li 11.033856886900983 15.124829713649847 17.333777562266356
Li 11.276350952013551 9.451549099402483 12.273426656383588
Li 12.930176491627778 8.84389921008577 9.67283849845553
Li 15.149756732197735 11.994637508437865 17.586601448700527
Li 10.79982862558657 17.895598744756786 12.104757616275387
Li 11.931464042976014 11.784456579297972 16.82758465515512
Li 10.896303002089885 10.975255832453424 9.876732716205632
Li 11.241366086566568 13.769838043621283 14.885154736677531
Li 13.012270126741928 11.225444651278902 14.152475353873289
Li 11.124957336877229 9.811584707718728 7.352779934859516
Li 10.966715215463692 15.17885338673448 12.307051836063973
Li 10.876283851736536 13.166703195670028 7.806774691740489
Li 13.756163017139565 11.099465399292548 11.328531736289813
Li 13.805408715906756 14.40049064823362 16.304796164476976
Li 12.51656806330996 13.50483193194639 10.380545385364922
Li 14.88679357048019 9.76892790710137 15.589176967073902
Li 14.090539520368425 8.650628648333079 12.751296501837533
Li 12.47180923479598 16.472072157299248 14.460143150990547
Li 13.323673276932103 11.51028978477034 8.476021870241704
Li 13.482440617783066 13.859165201957321 13.20641985165132
Li 15.97405698816607 9.429516673859334 10.149508551160284
Li 14.975395859346852 9.44787189512958 7.327884769922323
Li 15.431624420149596 12.640074952604941 14.873541285238872
Li 13.516132043866646 16.200665927995757 11.435566419800786
Li 16.988609420818864 14.192519971191052 16.494471473777246
Li 17.66723187650906 11.212359747789009 15.67181869305404
Li 14.128364273015874 14.528059575283336 8.568621095412995
Li 16.15241070269396 10.834062148710329 12.906502362639833
Li 18.26550483468032 11.434286974714572 10.908996448872623
Li 16.074734391059888 11.872905339503566 8.964091820860865
Li 15.54806858424419 15.530836218850903 13.991251414601855
Li 15.565662628263121 13.431144429503657 11.401277262268836
Li 18.072748145475938 10.000642843031606 8.035622041268844
Li 17.746755948563255 13.348506117207473 13.474247032592027
