52
Energy = -81.76334489 eV
Li 16.961773623297876 15.12805952917322 12.301508799705811
Li 15.82606361788744 12.83688988193062 10.834272519371941
Li 16.335748160708118 12.651161040034399 7.979259307389046
Li 16.987008585661165 10.231498005970668 10.658260043093678
Li 15.988051925637272 9.547362757741016 7.5943613316611955
Li 14.588044434939825 17.404511986596408 12.13255985507031
Li 15.80500243266134 15.63421047924156 9.48826637973074
Li 15.453528607455485 12.358554996668918 13.540940691926654
Li 15.019890165937422 14.94831178941411 14.673480295871478
Li 14.150541835300608 14.839236385482867 11.778445708855573
Li 12.883031778688725 12.272188407234706 11.535603780547332
Li 14.372096487179506 14.943935645438849 6.691223402938695
Li 13.665254907544066 11.790448182264123 6.702945301373109
Li 14.894704484382498 7.946268246180582 10.23059842245413
Li 13.73144765947659 13.61533112652669 8.98711866137533
Li 12.628087161029354 13.613299968889248 13.981491329607206
Li 11.62596284344138 15.951919105046754 12.224898894380726
Li 14.455540161325413 10.737000475179457 9.394900596029483
Li 14.745337911383626 12.055904675003964 16.5736277000066
Li 14.421297866074353 10.086254831305348 12.164318121527291
Li 12.696620666875404 16.584975913405838 14.851373916103688
Li 11.078940654834499 14.036394222573309 10.263698151251988
Li 15.838425725034902 9.480218683907907 14.537918061184307
Li 12.816207545282676 9.014878224747646 7.757575758130127
Li 12.882378297898532 16.320462133035306 9.393058586949358
Li 9.94225520217566 13.121452938066803 12.6095505330729
Li 13.599327642314384 8.924039143788825 16.6565271052436
Li 11.623330375301483 11.419261710256757 9.101651493877572
Li 13.190656183509082 10.835867099968386 14.829708429841808
Li 11.458921774713163 13.997721547081872 7.3162962240973055
Li 12.13894954792813 9.06903475823194 10.716686027212438
Li 9.53531031095742 10.91038866672293 10.978916701759251
Li 11.319313565518431 10.527502732987896 12.967638199514251
Li 8.592048753895993 15.260808369415008 11.578390931397644
Li 12.382609391057207 14.052518830657363 16.678992139827795
Li 13.024753051988908 8.075991268398191 13.569061794351075
Li 10.400275802169356 12.14683298005738 15.276160907959904
Li 11.599627075090266 11.137605606476535 17.547746441787886
Li 9.608704066448158 9.046586085796706 9.00351063815257
Li 10.051999476446117 15.096753810858687 14.740804758979797
Li 10.492298316874606 11.045690555338814 6.754424717349878
Li 10.589543650538443 9.086494150988221 15.39202586693706
Li 8.794026507071694 12.70520192437197 9.033910654243863
Li 9.77290166824819 8.20389002417974 12.411465961039232
Li 8.455397355416943 10.60731430062685 13.707343612788733
Li 9.381854634463894 13.572079600064706 17.408815464125645
Li 7.659888184378052 13.26173284006367 14.686188976842946
Li 8.17023057604614 10.756621360744974 16.54998108195197
Li 7.0330635985893695 9.387238689652053 11.61541614942454
Li 7.158505454620615 12.462066192595119 11.809700101887506
Li 7.491522778945197 8.251358955335824 14.625242697462038
Li 5.774238874531527 10.791502895609062 14.244604532567996
