53
Energy = -82.3783837 eV
Li 15.884025311586381 12.575159480229654 9.359048174034386
Li 16.061084565518307 10.442960390157285 12.067684604124587
Li 17.73975124995438 10.50450002378287 14.712039035178577
Li 17.70773749479683 13.053370884349393 11.87503075590565
Li 16.021902707241548 12.781989695063332 14.004359302963614
Li 16.164566306859722 8.50107525287038 16.803715371727566
Li 14.130496361074577 10.055557067998235 9.712798738177732
Li 16.452675626835738 7.737006731157333 13.847666565261315
Li 16.945973371740134 15.729768554775294 13.755270395532197
Li 14.228985880618657 17.1716133710245 8.906364935949723
Li 13.678208807815274 12.053093837033261 7.2596456692857965
Li 14.29297604477984 12.935486203822164 11.652328744219835
Li 14.70648927047008 17.783761361395186 12.116445697600772
Li 13.894100698445797 8.016524680839229 12.239221928037999
Li 15.563173264355221 11.564992261125633 16.797311977325784
Li 14.941127883265597 9.8618348193772 14.72381488787323
Li 15.81260469030285 15.272302318030246 10.921705733612626
Li 14.23488067186381 15.233807988720528 13.55525147795104
Li 15.220264768109747 14.60776268088751 16.239928320807124
Li 11.325737952938493 10.386721505960475 7.607906953728233
Li 13.453929607281369 7.605636008174351 15.34803852308471
Li 11.94133132596919 12.338160914325137 4.9538215615192165
Li 13.10849359240874 10.543956192993713 12.650218598256592
Li 13.252802256481152 14.978102732189566 6.353638944457291
Li 13.46695106388011 14.274954531819164 9.043935500982354
Li 14.546544202994546 17.446107957103155 15.212343842744252
Li 11.344155539890075 9.171284534223291 10.557487900432543
Li 13.290533982769608 9.624714674032088 17.631827345062064
Li 11.810402960620975 18.570233342103673 10.913374172731704
Li 11.313635951329134 16.316047760013994 8.613174445684912
Li 12.815387558084382 15.924412555979421 11.014923355627166
Li 9.73306368770625 18.82048122111646 13.590895342425256
Li 12.784070480163034 12.691618566836121 17.44130435627343
Li 11.026127262148709 8.409267165135761 13.541013461184855
Li 11.040746933355695 13.320456543943822 7.557553796207177
Li 12.329537688080707 15.27738609260455 15.827420408057144
Li 13.433744962398624 12.577078838096744 14.75762590658439
Li 11.98428039554035 17.1033108759039 13.518395994091723
Li 11.69386669615104 14.014603998930419 12.839719384011437
Li 11.96338281093172 10.30170477559869 15.355739475720627
Li 10.410160499457737 8.31498367556178 16.687332795622638
Li 12.113690047701958 11.902194283766704 10.019980933803891
Li 10.442816016697455 14.063761198848287 10.366141867082698
Li 9.257331399905576 11.427389687860341 9.886293140193281
Li 9.539542597561866 15.744066544207952 14.621289864047382
Li 10.177161166298928 11.17437695636766 17.514113325681386
Li 9.81204858054353 16.49119910334562 11.7398347139394
Li 8.97729935659086 10.44556030856207 14.870988488954158
Li 10.573364934755283 12.946640343678688 15.187344682867895
Li 10.546254822907962 11.3148356026151 12.570785382478054
Li 8.639152015547763 13.386585537628795 12.899182505461713
Li 7.942638223970707 12.949980681172196 16.1713208603705
Li 7.551990470921293 9.936917927269487 17.34614781746069
