55
Energy = -86.62988383 eV
Li 15.68269421229801 16.902445123210736 10.114329390250372
Li 14.460690692677884 14.47402604824732 8.446522560919679
Li 14.685250798001194 14.202685788104645 11.101506710323044
Li 16.735945147314776 11.857067843204169 11.155237311997217
Li 16.391819928119766 19.186927414956557 13.02210282433714
Li 12.770286417258854 16.56931428757767 10.727648844143445
Li 17.472399918617313 14.489980136401016 9.81263458774153
Li 13.668761200151607 11.316895337447981 10.732607850004786
Li 11.989107423607491 13.836517212037664 10.25207870498512
Li 16.978715916584886 14.522745377300115 12.66714830885754
Li 10.155607509043886 15.55952214679607 12.244319696924379
Li 18.279309576520312 16.87599249226795 11.829346610237426
Li 17.304523946179376 16.95856827314944 14.54063392654584
Li 15.668719016863264 9.627287177416461 12.890465331181412
Li 19.290907679485024 13.1359878854741 12.353656375647182
Li 13.24377124422723 18.914311587371824 12.826238115596759
Li 15.016464283543408 16.676598411792256 12.811502470735578
Li 14.374478182652522 12.311355379497703 13.22914112935714
Li 12.680129722155003 15.107260939179318 13.24180823112276
Li 11.420216987268455 17.338784809385785 14.47285269346883
Li 18.759190729154373 10.05910245440961 13.292751668814358
Li 11.429258375607828 12.701007178049704 12.855525382738541
Li 12.603740223453267 10.058595775101278 13.565556877202605
Li 15.056077897879526 14.63107716625572 14.763344314058392
Li 19.950164115641464 15.647289009845295 14.061357389161328
Li 17.87055266853261 14.396056263839174 15.35143597518262
Li 19.291971776619857 18.824247258507057 14.312876095912909
Li 10.446140551260244 14.573168387969586 15.273569560409928
Li 19.026194747841604 16.874783149455457 16.82430838666351
Li 17.05773990484469 11.94295312426839 14.069498637228419
Li 14.737528696193616 10.367388010670812 15.59366393438761
Li 14.22061277119416 14.08323799018754 18.25300278465313
Li 14.423449253986727 17.865324703503386 15.306417870569609
Li 16.088431393345743 16.026909484303726 17.070091107966608
Li 12.300600632119874 19.307469573741532 16.560785239679902
Li 19.644003434979858 12.391435145973016 15.393503517906703
Li 12.835685075916809 12.697601223358939 15.649975970153395
Li 16.825593163561017 19.125785496887563 16.332561285732424
Li 18.057512771560905 14.197167970017928 18.151699763707363
Li 14.49447197027521 20.650366525929105 15.111370843190649
Li 11.394071032615518 13.749177813853313 18.250091480950406
Li 10.835868608966734 16.8433173573316 17.64675244961667
Li 12.627156449202268 15.955979510204905 20.000716517256674
Li 15.94965524372279 12.691296077995652 16.595921844331798
Li 14.022867433629598 17.557929626370093 18.277116709155685
Li 17.59778239269981 10.337022302127806 16.38647457953065
Li 13.465567007653394 11.285465630206806 18.192014422606395
Li 12.891330846822946 15.622697350471348 16.358360108838568
Li 15.79317953096894 15.316881936226704 20.106870653829233
Li 17.005459521505315 17.88721041780945 19.02564126947328
Li 12.009281695874234 19.045255621216118 19.63508012295154
Li 13.616014098518338 13.141676352509855 20.776651602564186
Li 16.15890039785282 12.04971080290722 19.30424615648427
Li 14.628878620946987 18.168633646899256 20.933440863641255
Li 14.733486920171242 20.1807257484681 18.363762696762947
