51
Energy = -79.50605028 eV
Li 17.46029842282716 8.453872341121182 12.066880758710093
Li 9.847556864069618 13.572271572514138 7.594031733534871
Li 15.412090557510654 15.776576057263073 10.52370077368004
Li 14.344658921511572 14.992997228662292 13.27088946575409
Li 16.637791563972442 13.423431017299482 12.616078534674026
Li 14.215332730865962 11.938354104298794 13.678377400492066
Li 9.144767378107064 11.118053297051464 9.420791957746168
Li 10.812894065739824 13.445132054614914 10.249596301229515
Li 12.45912353343757 9.753128777902292 14.151554081804244
Li 10.98244699237913 18.271125714318245 11.463010261803653
Li 14.671427507567307 8.539274289346954 13.069545268043829
Li 16.86252830878489 12.956368018136562 9.659085699161519
Li 10.322243778801004 16.130658329947593 9.271340887354192
Li 7.928060457239154 13.818660129393372 10.25506039981046
Li 11.166842243751995 9.708022946050612 16.71299702921679
Li 6.726602522412676 14.090000978931567 13.251212798639143
Li 11.8988503824982 7.897857341300578 12.019110962122157
Li 15.644990082416417 13.665159113219348 15.665623705375824
Li 11.986699778746575 11.742731250355604 8.523874877243948
Li 9.559829390586648 14.579973432446247 14.979593892317759
Li 9.11097173618772 12.91202616248666 12.673353312714449
Li 10.494241810317051 10.678830178540087 11.829226856832365
Li 17.51482197011918 9.807931198648708 9.349415994155038
Li 10.73204217620049 13.026159398384767 17.366423781378696
Li 15.989112998349736 10.76214594952115 11.418961658053023
Li 9.440936672492237 15.650228953462799 12.111499117299301
Li 11.29477767759078 16.17219197778592 16.99927748088083
Li 18.6934997162142 11.260042129026187 11.798146000607971
Li 13.149766332388626 17.69831282950965 9.384341060753167
Li 9.601590680499015 9.152946775594666 14.031062512477337
Li 12.44005698451338 15.780436408819623 11.178119111787769
Li 13.62542923095534 14.434920533884055 18.01994091251516
Li 13.106186564144489 10.595606193768782 11.188250782144598
Li 14.2061072047816 16.59394612235124 15.74405502819708
Li 13.955918080073605 17.838746303588472 12.487433340252661
Li 16.6597824680415 10.674768103274747 14.293431935646973
Li 10.9451812677415 11.880197797977226 14.787632926786122
Li 14.720695411335287 8.398016575603643 10.082984076208355
Li 7.345908129409771 11.005121475189894 12.131706354763656
Li 8.981412100021661 8.47019376849505 11.035413947939398
Li 12.175871594435778 7.114084985097882 14.94837523715946
Li 11.700155342935046 16.486695513807952 13.925772757996176
Li 14.73976115660415 11.050661967888683 8.665769545199705
Li 8.18120533454511 11.814671811780856 15.15479601341214
Li 12.623522382218859 14.24064976274001 15.454880724384093
Li 13.127938462800602 14.557744721805744 8.484257794206643
Li 14.480995000093314 8.999225041233077 15.938705339760503
Li 11.921215923985411 13.362537583691333 12.747477094614792
Li 14.138013629070668 13.196382229529446 10.790045469652918
Li 11.564848131816264 9.03260271911736 9.26662394172656
Li 13.454688227445107 11.719942435694707 16.44528331972589
