53
Energy = -82.88455799 eV
Li 8.171345669482685 12.940105352440048 10.15710224256575
Li 8.579799946644851 9.09195605094929 13.20178345870799
Li 10.565979803029007 16.255726775914447 13.199602706771309
Li 8.965087393864025 8.039938737019403 10.31624069535548
Li 10.187676972780524 11.345927430255397 14.545826618989675
Li 11.143405709363021 15.196094152975371 10.054241462133136
Li 12.94172678552846 10.583765315013498 10.105062239173135
Li 12.29416713416845 13.126461891224954 17.05057384320838
Li 9.614528412581494 8.627001639913912 15.902046966331207
Li 8.7768041649684 10.655589121741478 8.478221252849496
Li 9.35589720716154 14.108870524165694 7.747678079716919
Li 12.904933210320472 16.26284565309 15.24371951346202
Li 13.591463050057378 17.738938461111108 12.36315914213086
Li 11.7708521022924 8.259398148518494 11.098842725202958
Li 10.35833124917544 6.671158922621711 13.199318804955661
Li 11.03059235417842 17.924246393345413 10.789303301265782
Li 11.030351154776762 12.348657441348514 9.190366003265657
Li 11.785389140061852 13.783004441951341 14.50112693510652
Li 11.809456187278395 9.044544663771267 13.81064854841675
Li 12.155812437647864 9.886823772028626 16.83141479234301
Li 11.430245199982004 9.188942067394942 8.32190345685445
Li 9.89703413592626 10.58471261649001 11.207032981551752
Li 15.529765360634917 11.38695464443362 9.503073392047183
Li 13.659891675552018 6.928920591871498 12.851309349199227
Li 6.924010073987779 10.27746902551969 11.052331941988653
Li 13.362944714659871 11.598808318027267 7.432914824081486
Li 7.844807738139869 12.347943862786934 13.039552296152106
Li 10.527801323546818 16.967866810692133 8.01027764166221
Li 8.552321561220088 15.933213370301084 10.674080323526072
Li 14.438897702391836 9.776785874818932 12.347422648232916
Li 15.473663831555504 14.196517417303184 8.008092215851656
Li 17.240852206657117 10.620186063605875 11.829411461922712
Li 17.51816054446928 13.306151810508597 10.347661559438217
Li 13.385384629561957 11.362552676058986 14.833176445828949
Li 14.507355314622771 8.338307005099063 9.659671361917962
Li 7.391015632771242 10.815158702316607 15.423255424398489
Li 15.235000080535565 12.74420997140205 12.277115830544709
Li 12.18599790789369 6.964539251062992 15.63651733416693
Li 10.09599032128588 13.677015375410903 12.155242909973227
Li 13.623466593784045 13.528693239824 9.883180860092438
Li 14.610568964736153 8.768240081765887 15.250334656013276
Li 9.115751340548224 14.022917643434715 15.303506627430258
Li 12.416909265268227 14.549092316582328 7.423741096808751
Li 9.670905978907195 11.56089957969035 17.19927313479946
Li 13.483840931374166 16.677681411071653 9.321032923204816
Li 16.27766439892548 11.202717688643318 14.605565315026062
Li 15.72924105812648 15.528869377658914 10.871089368429706
Li 14.777909363480402 13.752499922402558 15.183500110224715
Li 17.617251115123278 13.649811453741 13.355842899728046
Li 14.854959711110256 11.27490797689701 17.266770888468436
Li 12.313283445316946 12.026413286910065 12.277784651719914
Li 15.671532445851836 16.018787155656007 13.701412476618144
Li 13.166052540752277 15.076825885637437 12.410710451224958
