50
Energy = -78.17380812 eV
Li 17.100210965531456 11.73733096184549 10.477274193996758
Li 18.122399118565987 12.377367425368698 13.604975006528187
Li 15.585476158424317 13.383801097995656 12.112834425834926
Li 17.104868313149726 9.8936850376124 15.633186407608997
Li 16.23833346925944 14.689199326887909 9.633638834474818
Li 16.752906688507093 9.517937056897672 12.677847805994395
Li 15.809571905538556 14.657552498653832 14.607491816078253
Li 15.31591377256804 7.491551277112958 14.94519669049277
Li 14.178525526575658 12.364215824336204 8.626744178580426
Li 14.8054616951787 16.644638333201385 11.826079194697398
Li 14.476251658122516 10.760749056785087 11.170418174305084
Li 16.330430762703553 12.613665520097102 16.714102009774972
Li 14.245864231702312 7.591605800606349 11.832226305537642
Li 12.971411872501768 18.964349841900464 10.398993067270403
Li 13.502024187851534 14.19286632164585 10.636336678172043
Li 12.849883306941331 12.202987147179336 12.85120785122853
Li 14.105702261351913 14.701630015149814 17.376648113869265
Li 15.591358182116096 11.675712223109667 14.199444269877207
Li 13.47718040390165 12.960591430991556 15.399813572463547
Li 13.727405722535924 16.37609286337018 8.771641988396448
Li 14.281092468267872 17.043976061894536 15.25303887916484
Li 12.993791630657286 15.107162726024661 13.453730742696798
Li 11.960884465095374 9.393056139912115 12.049269282170956
Li 9.992147599818134 18.643858105569713 11.355817905640748
Li 14.085729553665152 9.578118772938048 13.843146082775903
Li 13.976571893928863 10.222159593444562 16.598508493614595
Li 10.844056253135216 17.544821018524097 8.596579945240768
Li 11.784332736917543 16.57580786848393 10.954644963522666
Li 12.850156341745738 9.098613094658235 9.291031075006282
Li 12.259420438110459 18.04188661277507 13.337528269396476
Li 11.163655632177123 11.359479326837839 7.663879244404274
Li 11.628399788136791 15.64594989046944 15.966556620574941
Li 11.814169978318251 11.712161313862062 10.214715759232302
Li 11.258413545184737 12.463367458005989 17.202063329116914
Li 12.252561242915032 7.541014420013346 14.443914187831966
Li 11.61347208890472 10.582430007938473 14.79973613695734
Li 9.913804844294788 16.173822589600146 13.479173337963205
Li 11.214034105835495 6.8977514389208485 11.43660310783987
Li 10.646752887809841 13.398628476669964 14.535606916655768
Li 11.313223351656621 14.368291305275548 8.727666146018345
Li 8.960755040895055 15.783222700242975 10.483673925126874
Li 9.871627352040163 9.468708846623544 10.10107716395735
Li 10.870827560166548 9.025349644847806 16.838031884746936
Li 9.0227808160571 12.618024834044023 9.869195303718781
Li 8.762837550294973 14.44340221553509 16.19888187468512
Li 9.598023338272064 8.64977342543996 13.690566163898831
Li 10.792461017678805 13.989984728660675 11.725094364160167
Li 8.896300499236487 11.313802356353285 15.47719777397998
Li 9.92085938245515 11.351162765635799 12.510707263649874
Li 8.147226921489654 13.696177991966945 13.051410331132946
