54
Energy = -84.91724659 eV
Li 9.495238800726288 11.499774028694825 15.636436269059569
Li 10.054237133491261 9.202720252737139 10.556101991315993
Li 9.678422038458086 11.346769450856307 18.704524127150385
Li 10.500854321784029 8.85877766229909 13.797244471709037
Li 11.542931810470783 9.303718420537837 16.78636785873236
Li 12.169370530339636 7.0802103951381445 11.73238303179679
Li 10.989324823957123 13.788797344077125 14.609308788653397
Li 11.923891320951292 12.118491276764567 17.201207699083646
Li 10.277894560732403 11.783390414562962 12.436432058137035
Li 11.934124513245752 13.672647605009955 19.618734761639974
Li 8.150464721906742 14.304938566829076 15.165636127557693
Li 10.274106956826582 10.304469893435227 7.575758110595788
Li 13.633962283596919 8.405182191847866 14.222720559467321
Li 14.486895405795977 10.436644492197756 16.25894047949268
Li 12.249954109753917 10.96345650891466 14.522028046120647
Li 10.9828031813265 13.950916583114003 10.40420154443672
Li 8.819491834755306 12.215583849531576 9.685946648670365
Li 14.56533444551201 13.232215118066506 18.0058818081402
Li 11.587078152275113 11.422544363558183 9.623157998089745
Li 8.997072669066283 15.48401317950612 9.473692649238883
Li 9.875013670696216 14.123680096175791 17.448472865649173
Li 13.98073287397988 16.176259996506303 18.960325071266528
Li 10.824321631609813 13.51976867042893 7.613246868832165
Li 12.508521908242122 9.829213927608757 11.899560486897872
Li 8.927500301348907 14.47524038238229 12.342220871816709
Li 12.759963286241732 8.728523600800756 9.107807010305198
Li 13.052642981901958 13.015676116186421 12.177193958250465
Li 14.989219001075112 8.429860891788138 11.517041688200498
Li 11.513202016043767 15.647530671109857 12.354753918422555
Li 15.081072292898433 11.182616036757114 13.062242329794078
Li 13.573612784128013 13.816320875651268 9.140372151057463
Li 10.437258116547872 16.55888730595991 15.02141063333983
Li 13.833513144426465 13.115684396341946 15.210092300843948
Li 14.358898599221463 11.061495243876978 10.095922217052792
Li 9.600484162573565 17.44129337332571 11.924764879931486
Li 16.862676898811404 9.451650738702792 13.962448920612639
Li 12.534022240356776 15.058409511410416 16.93938724554916
Li 13.215550950365866 11.403928772264305 7.317319529606237
Li 16.593289051006046 12.437930414712893 15.576293826548602
Li 15.668500452978448 14.28279467833749 13.48823594415974
Li 16.021210990212634 13.250448064810874 10.803161922212869
Li 15.47715599469674 15.56268095699277 16.272975720823286
Li 11.859063821022085 16.597355972694025 9.703883911368871
Li 13.342676976233534 15.803490040332093 14.291501235733149
Li 14.35656305222846 15.772686600163453 11.359714072420836
Li 17.162822084871294 10.461883775711156 10.737302083144764
Li 12.540763601405644 18.210635291972487 12.931258688940055
Li 17.899153905299904 12.346425964666171 12.793341026462405
Li 15.539443320074273 17.40339078251669 13.687443218118604
Li 16.214964182335894 12.172688599973132 8.168219914764675
Li 16.301736452670422 15.233372482192904 8.843303482203513
Li 17.53180008520831 15.517202317596222 11.684797067070596
Li 13.357149463711515 17.877958461476624 16.09417396119854
Li 18.586184429268773 13.183510025434186 9.814940687206754
