55
Energy = -86.86249933 eV
Li 18.871945581122468 17.800990200690258 16.34757192783975
Li 13.568437070542062 13.572356685139093 18.572215510166878
Li 10.679705932245517 17.209028296134424 17.721988843108843
Li 16.78570386780395 20.124726657454264 16.370388515457776
Li 12.133136874682776 11.88782566167267 16.520603407356855
Li 17.564235983331702 15.684189508169233 15.255055725488141
Li 13.332927822947575 12.659137786705243 14.05657944349459
Li 18.255767506682517 17.802280335408636 10.769997328799349
Li 16.90245603330261 12.976138954590713 11.283749445303297
Li 20.35036942012138 14.793625413635354 15.773831162784093
Li 11.97468230919179 18.311980552120893 12.85835724860021
Li 17.08013004602544 15.867477599009923 12.37005173698407
Li 17.104760825553388 11.173705247039543 13.892080054529806
Li 11.516066862383056 12.896517789682765 11.640505102138603
Li 14.231046805450458 10.05954240850834 15.085475325065804
Li 13.672562446196057 16.503152595328856 18.18659548246429
Li 18.593705242483022 15.309974989672423 18.3962549636238
Li 15.86607485880965 15.378504566147086 20.280958324909374
Li 14.263252206203758 14.162423323558409 11.735701406457475
Li 15.999523230797779 13.70490837030284 13.929776277508767
Li 11.658304980837132 14.846576619723837 16.386362320462787
Li 10.313417800077598 13.55657736054148 18.366129249155794
Li 14.196693447776122 10.49865191874346 18.285865870623287
Li 21.51294682207781 13.775990168568315 12.977118235720068
Li 17.036317998884215 10.255511412957068 16.79052474544756
Li 15.631385834179905 17.628926514222723 15.908029059327424
Li 17.95699477880988 13.065567950372001 16.29705617855203
Li 17.233232878716702 18.503244744444626 13.689609501495438
Li 19.28227630767263 14.754877626734075 10.82954427381817
Li 14.248633435733403 19.671859939337924 14.319189984139713
Li 19.613471378260787 11.638977028985808 11.825500722274297
Li 18.875091994577758 13.677281503963995 13.475554872469992
Li 12.129097947254689 15.335984470545624 13.47323678442715
Li 16.62528795875503 17.79567046677374 18.469713475970025
Li 15.064546696095174 18.401844870572376 11.27608609435414
Li 15.165886779222134 12.359192709954366 16.431964775332204
Li 16.03785767813344 15.026875845053397 17.56577598762668
Li 14.55126289142671 16.72375461483665 13.298389347696768
Li 10.049976091882739 16.973489038115947 14.790142061892212
Li 11.294417865708768 10.546885223408111 13.709096940779013
Li 14.238376333125196 15.006815805953787 15.542021834595532
Li 14.392759321139177 11.124740079420388 12.069011876708785
Li 16.56544730527608 12.584490361048505 18.98225747150449
Li 10.579844377346634 13.210751361640103 14.355595201107246
Li 12.588464705098778 16.24649087675422 10.76540605594517
Li 8.710583912076917 14.48498990724046 15.791040328877253
Li 9.599726576518636 15.199939672161332 12.38794676958429
Li 13.830045258015364 19.407492302792907 17.41618094578846
Li 15.941959245061904 15.786351894107314 9.895383302957853
Li 12.692907240527427 17.51593555331234 15.594970746777024
Li 9.25763841529014 11.462103012450816 16.076788715350062
Li 19.746781424185347 16.575224847725032 13.337310879123349
Li 8.476310433704723 12.240426481281892 13.123003879771261
Li 20.115141831602564 11.603426511771408 14.920422884431016
Li 11.164600129795385 19.758876495101273 15.65433415159355
