54
Energy = -85.04786524 eV
Li 17.66241824538713 13.000052946135462 16.487385126472418
Li 19.16531367806206 13.628415222821829 13.790574445286607
Li 17.80856603800073 10.600175760031235 14.187519728024379
Li 16.73615932306179 15.595258915984875 14.77963551170743
Li 15.425241061236937 10.80859510163217 16.017034505885654
Li 14.695488641031123 13.879617402965804 16.44865893514101
Li 17.206600403244966 8.818584219262284 11.602438721468117
Li 15.298329876390056 8.559325455234466 14.106826684826562
Li 17.58140017538129 12.023927877558057 11.468055469773317
Li 16.51893622580015 13.055486315751795 13.982543651479782
Li 17.291786133960276 15.123080811209357 11.689908771672807
Li 14.2961801656295 17.021340525861262 16.02594295464394
Li 13.362311392476057 8.351121599395885 16.735313504071563
Li 15.323247252279682 10.678803140633349 12.3526414022966
Li 13.954525099271471 12.252669027937237 14.059738679522274
Li 12.931408714300476 11.488293389545639 17.443828670404006
Li 14.790353204514329 16.923190711508983 12.693132155452346
Li 15.713988122147219 10.40734791541718 9.231022438049134
Li 13.449955363309245 15.088018685718382 14.250819014035233
Li 16.123274195193208 13.396281704424982 9.283598429461263
Li 12.554949632773251 7.485855124681018 13.447765510516994
Li 11.69047045060678 15.203761880491312 16.66220628077755
Li 14.768864056391196 14.005057726426374 11.892299382310373
Li 14.039370946680616 8.519120469158398 10.948218239496976
Li 11.693167838858917 17.454346013794 14.196584633807305
Li 11.955120583138598 13.027249280096152 12.381434118214644
Li 12.664333936759595 9.989147905454704 14.788016583439482
Li 12.203912635629147 10.229273272514018 12.15905313440262
Li 12.078399472475791 15.827626475754684 11.59862095151553
Li 13.723478773512516 11.95495038023756 10.342399611891421
Li 10.485737101264611 14.928418738221872 13.965835484690723
Li 9.922233960667839 8.860663997340263 13.689819789181096
Li 11.62528395968457 12.720547501056283 15.300046966378048
Li 9.697799789192485 11.629294082247965 13.484312233841058
Li 13.536745495598595 12.836817225057992 7.654157384597136
Li 10.238144845159356 10.32168004580153 16.278875415535808
Li 14.21152099909351 15.55024264972352 9.597510454079856
Li 12.153966912668517 10.232220859840826 8.760417155665444
Li 11.73390977797357 13.828781824319615 9.657675289028804
Li 10.207986209519035 11.4771710554961 10.414387699955443
Li 10.624765507130356 8.404808541808555 10.740876539621741
Li 9.238016044113705 14.09714785648738 11.65090539212727
Li 9.421367498576421 16.970986091041517 11.784205340129693
Li 10.259833963806905 12.639898552170049 7.651581736908746
Li 7.826797867631328 15.727620796907424 13.958643424553843
Li 7.456842966913904 10.40121721083198 14.71635922586121
Li 7.979818616060915 10.129025904420821 11.561056419856886
Li 8.729749193630713 13.189394670156478 15.643833642484024
Li 11.840157852702538 15.484959140570014 7.448698913292648
Li 9.343430499042098 15.30061486693674 9.13730225809948
Li 7.074968281847875 12.86054786284902 12.886170937820056
Li 8.908515260160186 9.855957298228887 8.532404046074843
Li 6.84346850214869 15.410101440202267 11.009456523121068
Li 7.716247451358622 12.637776859546058 9.63182828625183
