55
Energy = -85.4901878 eV
Li 16.168755830175044 16.989537515096462 11.750228681139628
Li 17.412602379607083 14.014342062884742 12.533075114707065
Li 5.874365448180218 14.154355822072807 12.269579032226522
Li 16.642705387005282 14.820477708361791 9.798667002553563
Li 7.321295987839319 15.402803666188703 9.832520893761034
Li 17.2982143958256 11.596682750318486 10.107195007209882
Li 7.6938100314750715 11.994103600775526 10.277901772242751
Li 17.57980601101189 10.971479068998963 13.238228756287551
Li 7.677434247726307 11.918104499795175 13.41329667712942
Li 15.823250430257993 16.094831301622232 14.560096057382399
Li 7.903991570001327 14.63589372528318 14.869025017827788
Li 13.18724476580199 17.164804058954854 12.715282455269948
Li 14.428874323727328 13.239526703627474 9.548173752406887
Li 9.98927191689547 14.150208413076632 9.411250039629177
Li 14.533916027908948 10.160555674794422 9.496866134061056
Li 9.988190817183304 9.903895191216122 10.557460263689386
Li 15.802369353422854 8.951328849942364 11.699814245048854
Li 7.927838707511629 8.995625083147388 12.13869744355554
Li 14.718310173583257 10.27797290291739 14.11988404342386
Li 10.072577273666782 10.586459178051456 13.45694069834089
Li 15.41078981010432 12.99732816417309 14.71728063669735
Li 10.479341643325078 13.48208915705869 14.192329695486986
Li 13.606055367421707 16.133976949629105 9.824790157886994
Li 10.228243637949381 16.740949595504304 10.780276430031378
Li 13.022240010176104 14.922955114830383 14.64486854532628
Li 10.35755048734117 16.230447863645526 13.815065978653635
Li 11.918117211747841 14.601158865021782 11.599807950598183
Li 7.451015574565735 16.865745958780995 12.573284593237489
Li 13.226622199952825 11.321676106559908 7.16334694419768
Li 10.194487762577152 11.58096583411096 7.953123961278962
Li 13.986781110778459 8.136979299932051 7.240180020754459
Li 8.884259631985703 8.762178383898839 8.17768102267612
Li 13.246671252905454 7.291443432584249 10.360028202688545
Li 10.138514936228866 7.091757777125474 10.330477490763904
Li 13.73626162007537 7.6323318919625995 13.717609650995914
Li 10.784139249615434 7.842738041312979 13.096308881516578
Li 14.141286880272244 9.403123423810126 16.862027243451408
Li 9.055377637259328 8.926887550879307 15.420239906416091
Li 12.632653024194894 12.345225184470419 16.178412880590514
Li 9.461187931506245 11.912762624402076 16.12186237893211
Li 12.300986038607167 14.172426833879305 7.794689526734035
Li 10.627536755745053 14.816246307589607 16.685603783030782
Li 11.244737687907055 9.238707152130283 6.013701900365567
Li 11.329716264753934 6.623966371014113 7.565059870120832
Li 12.67567022791832 9.679652986746133 11.8182108728125
Li 11.817874526951764 7.460840414071081 16.228426663403283
Li 11.243684809995633 10.003091532544165 17.73646233117752
Li 8.622567612158235 14.504125323485367 12.073904685003603
Li 11.809873512385005 9.091548761759793 8.664447991775821
Li 12.026689139997487 9.859132828256424 15.05054022206325
Li 14.71631997519674 14.729997347494786 12.251158806221863
Li 15.312317074279811 11.912347393599065 11.855295049129989
Li 12.202291730278365 11.867596455548423 9.90446947925071
Li 12.784553592030871 12.239805218040964 13.074044520005762
Li 10.145698336048008 12.377938033731327 11.571676383396468
