53
Energy = -82.78517168 eV
Li 13.686715140228202 11.879654104339908 8.63787959655569
Li 12.604011117766293 9.126678390376641 8.545182073322751
Li 16.158249650617098 10.290695759005942 9.701786700385199
Li 9.414317653010905 9.42128891606024 8.898041884809807
Li 11.025265110766528 8.082889867087184 11.234170132458537
Li 18.702593938831345 12.111124552598366 10.270576202490243
Li 14.016898473331644 8.168739075646691 11.110728316257907
Li 10.802256453271069 11.979468751244676 7.562955762174245
Li 16.25911499258435 13.329517271848129 8.201552887002892
Li 13.966666595759609 10.89930066376601 11.261995922400333
Li 13.58006165854321 13.746542234733056 10.762611481297931
Li 9.034625479184045 10.234898556436068 12.024832239948296
Li 8.7230634979021 12.43898676488907 9.93563027002993
Li 16.20580203186437 13.002397320352904 10.872668982209955
Li 12.570815360056567 7.225983627945907 13.832536548276405
Li 9.614856652553183 15.138082852184723 8.199091289945656
Li 14.78572671125674 9.27057824349889 13.718014555990129
Li 11.31696165650791 10.849402713561254 10.271547771437845
Li 16.803563757785625 11.26249408747729 12.879600715737775
Li 12.973729789910214 14.641124499954277 7.862561530519325
Li 17.948303259556376 15.070974833891189 10.059330752755203
Li 9.624211393470103 8.25140150735038 14.285781681012093
Li 14.186358196425482 12.529189568298778 13.456474655091167
Li 12.08422269942577 9.90191890283432 13.229132272947783
Li 15.370561496701088 15.036519361338794 12.761447990477722
Li 11.19246589202936 13.643654082193676 9.747755553547448
Li 12.002125678688902 9.418055973110697 16.02821030716056
Li 18.052569923608598 14.144388629691557 12.88106801707808
Li 14.409912922943688 11.111268528026153 15.928145688510073
Li 15.083049085092238 15.927684250608703 9.965896297871536
Li 17.064050131687164 17.115444993735032 12.21894861187539
Li 9.608263612476293 15.110962887460682 11.451003217766974
Li 11.96040070041575 16.466654772592168 10.159108024815339
Li 11.203988464661501 12.622307761666022 12.48992992707811
Li 9.853774499485985 10.98261733171098 14.72340770154311
Li 11.962980298815907 12.53964003961712 15.375417100589766
Li 12.39519567708269 15.313807878074392 12.757392765858606
Li 16.243714356343403 13.489488807972702 15.323204240401237
Li 8.416933565766726 12.930608407589988 13.241535728158924
Li 7.182135031152649 10.467846423060797 14.728109837221476
Li 13.675932885888502 14.756012936412674 15.315795468599143
Li 15.758174431398086 16.650365569957284 15.098715549010587
Li 13.95585011567578 17.606686866633808 12.50893798751582
Li 14.080711756057013 13.356679052251733 17.76651542856089
Li 9.126414148343521 9.835268540378662 17.076926780326176
Li 10.719044368219073 17.60783167006864 12.815675805281419
Li 10.39044468115141 14.881645351749272 14.600563997737389
Li 8.978255207769545 12.882096825807139 16.497809178559297
Li 14.125211182915384 16.22420259244581 17.916168650417752
Li 11.507603671040668 11.85693595109723 18.06539177039816
Li 12.530210862854071 17.18234756305883 15.30069798296982
Li 11.561229337175904 14.829467229757384 17.399144624877284
Li 12.538906486593302 14.222449619525266 20.096912897129368
