52
Energy = -81.5405078 eV
Li 16.252563423604087 10.469949703931585 8.955801720779691
Li 16.82093532978363 13.183689364516056 10.255182669559458
Li 18.76349905073624 13.633925212590682 12.431412859039197
Li 14.628551437553472 13.334032694995848 8.34353915558382
Li 16.51462443814553 15.93984346500633 11.565743230455643
Li 13.415335311301495 10.557986726335542 7.9693674467087146
Li 13.855097849450994 14.495047815488347 11.298413575737152
Li 17.478504615031905 15.26999462547425 14.574774332809357
Li 17.229662889839137 10.782270754363738 11.916795391917564
Li 12.004688706218197 13.035325136917221 6.682169968391843
Li 12.325224758962028 15.437539023555917 8.751713756410098
Li 15.995103758449764 13.493137209666637 12.975047839693815
Li 17.48284623048653 12.153240338888923 14.82707560541682
Li 14.389610442756725 8.748738931009528 10.89741711919677
Li 12.225973663009755 12.511837489166954 12.66263512831905
Li 15.781431176529104 13.897868821247359 16.757591843008818
Li 12.090348898643386 12.633028923357376 9.455896442860814
Li 12.39783013676836 7.737497563835965 8.55386119586247
Li 14.620119570676431 16.089268772424607 14.024349448728188
Li 12.528324374967092 17.105366749727857 11.592411064034732
Li 14.450084593424421 11.585894892066714 10.798328358289865
Li 9.652580297178927 16.66459066056766 9.685168330977163
Li 10.354839093157914 10.672158421389064 7.868749637467338
Li 9.587403405442076 13.606535918482765 8.56266782088219
Li 14.864608379701227 10.76264333956465 13.513599589100718
Li 15.288824593865339 10.750671216762028 16.406816989159793
Li 9.491353792686203 8.260817092257275 9.444184205626534
Li 13.988790745466432 8.084666431012236 14.187641456410773
Li 10.834996138611006 14.707134307360587 11.101471977045291
Li 12.18089358758855 9.769676511503162 12.850843095820014
Li 11.671042288962841 7.245979967590357 11.636927188930224
Li 13.009160003991651 15.475433408527806 16.567024106187827
Li 9.68701746062463 16.7494741517671 12.812172751098482
Li 13.964074399279571 13.07322499521731 14.986701178949206
Li 11.679276166061344 9.803795338612144 10.219893484573008
Li 11.974999535544779 15.241725725777133 13.82044761809678
Li 7.935163912369839 14.173887683689399 10.9729407793688
Li 12.581033818341908 10.48616833853743 15.554174575210878
Li 12.08103189118747 17.848497793369273 14.696944635971805
Li 7.714553710090716 10.947108147698687 9.710711817858334
Li 9.818665842944009 11.810358249007368 11.161268620760678
Li 13.04295141330073 12.489139134657217 17.817472493406644
Li 10.701418818901514 8.206341188648036 14.712077421824066
Li 9.927609961671472 11.000806208500311 14.235289476636993
Li 9.118896796258678 9.133606778017887 12.20021094077535
Li 9.462956003040494 13.772257648292294 13.46020890955433
Li 11.167353422914877 13.0753790870676 15.75294281688817
Li 9.985493175881858 15.732430310899717 15.790377897618793
Li 10.143610430021157 10.589789925851644 17.090520080241937
Li 7.361290511064144 11.561674493283107 12.793553148311403
Li 8.168062466224288 12.634617556799736 15.855204300960905
Li 7.788193291384075 9.511308135537726 15.07725275195085
