5
Energy = -3.96592704 eV
Li 6.557195081550685 9.608165933672733 9.754945721555439
Li 13.205586892382321 10.555313835013838 11.32665458870702
Li 10.280709741558036 10.463675586949558 11.469659687481212
Li 11.473501944606875 11.100575238719834 9.063441794774603
Li 9.29584361965103 9.20848334008876 9.31011843571354
