54
Energy = -84.77984947 eV
Li 17.64140197027693 15.019259846702903 14.25936321527226
Li 12.750512031142529 18.82170695887847 14.016893515919655
Li 9.840989731257613 15.453671058267414 11.555841900045397
Li 16.8557513639249 14.731652385443851 9.127712259704328
Li 11.505635000276307 6.753075963279895 14.43355591944047
Li 7.70030805876576 14.036325387077193 15.68455487618121
Li 14.958036927487019 14.75483302079659 14.727946100487681
Li 8.796228005940018 7.935170759440046 10.295234632287977
Li 10.60155243377173 15.453674197164789 16.429443906252104
Li 13.33529031687611 11.299816074333842 11.079439642549278
Li 10.88389372641707 9.75325569903873 10.831190806044525
Li 10.83909138908867 9.47447593025043 15.727911535887442
Li 12.921205511053017 9.054178223168867 13.449924954075476
Li 18.590042505281765 13.998456392096879 11.456843378388843
Li 13.42566431325033 13.93523475549307 17.43089948311033
Li 14.561425342405045 11.937687879371037 13.518385490016259
Li 9.79976350014505 13.893564675901198 13.948476694609909
Li 11.590369799122268 11.844922498274029 8.72651012837609
Li 13.408900465990909 16.645954129580428 16.074339320823377
Li 12.728702553121344 14.151198684607234 11.976830077483573
Li 14.172590821675529 16.610161499853216 12.757537005898879
Li 16.997469447095447 16.678196091458815 11.660471256235505
Li 13.572766197052472 8.037210298708281 16.134094999509074
Li 15.905164135089107 17.6530083462059 14.546329869578496
Li 14.462669293211926 6.8191383992189385 13.242487122800467
Li 13.653009540532713 8.47727542562668 10.544415021556272
Li 15.735118302981936 9.626460312324003 12.091598988005686
Li 13.309979554154571 11.113857912807346 15.970719395005904
Li 11.354047717716455 11.381893070063818 13.493558383136342
Li 11.614089274495312 16.19233718797314 13.811627497602316
Li 15.986168451686675 12.552572220874906 16.163526864777783
Li 14.201822474954561 13.409776600076151 9.358935139111184
Li 15.781865222267786 14.176495368431977 11.88982592036209
Li 11.436092752080445 8.567949010335331 8.448946917829886
Li 16.16840255739829 15.627241165269115 17.084524727379744
Li 17.359398107584163 12.00487572779754 13.445767666440393
Li 12.469590849994812 13.68495725767445 14.832542025726044
Li 11.477882572678926 6.952966811294209 11.450868650604443
Li 8.15680572044285 10.923694981443889 11.4144580259942
Li 9.631473126972244 8.788540126314293 13.129228572759477
Li 11.642627649205682 14.85489184578475 9.317012274673896
Li 8.754689410410176 16.60531785127158 14.077458148683277
Li 7.479422688088178 13.805282100162614 12.467345629742152
Li 8.636238067995125 13.459039268791328 9.323827295314162
Li 11.956088229982559 17.63828151406608 11.246278589457539
Li 10.373076066537555 12.658153602871778 11.224948054051383
Li 15.780146343387994 9.64261224731507 14.942038767092678
Li 14.84979669895299 18.987489098396566 11.61880716576146
Li 10.476580221009206 12.451142492402468 16.465926011167497
Li 16.42676213380663 11.877975288817026 10.406043597761665
Li 9.002442014203854 10.478437428232835 8.647821524269276
Li 14.330321875572196 10.534417838741682 8.47409643454256
Li 8.524455504903289 11.346608722536448 14.38933213088493
Li 14.400676705819542 16.34019184021475 9.96303071051809
