55
Energy = -87.14632397 eV
Li 15.64520478668908 8.996956329887368 8.61232660229084
Li 15.954865423817479 13.802332830897527 14.6949770755413
Li 10.790707446318985 10.848972272266895 14.921450552876895
Li 7.877640253672609 14.117951723714658 12.358599483565749
Li 9.658328745036162 9.582975603572889 16.918813407403945
Li 15.277604439022403 11.989353072496483 7.7819667705594675
Li 16.950971200166084 10.956638510747604 13.525987968795562
Li 12.301115117480839 11.521225080722212 17.49513137145529
Li 11.822399810775831 14.691232302360149 16.393233634331143
Li 11.13540479445723 10.350507034321081 9.985409107264605
Li 13.251572410182645 14.77354430178162 10.749786066942614
Li 11.111270502610836 16.8101444252945 14.546276161798696
Li 10.614304277580333 14.384621946577441 7.58311869697486
Li 10.36089503221877 7.353105101291556 11.406542149886684
Li 6.482447424331149 11.261109568792657 12.064684968870669
Li 15.37207025896297 11.005727506548135 16.210572098604334
Li 8.471303209531138 15.470148346547234 9.743476410835802
Li 11.530322537260888 9.483874641781888 12.619318442543067
Li 12.76972664532587 12.698623104670155 8.831058419711995
Li 10.46672351492124 8.219556769561134 8.283679682398427
Li 15.931938520781245 14.057009627951812 9.807732106687883
Li 8.54101335657243 9.268942702520029 13.440027516467211
Li 14.452043117000853 13.833483694204393 17.252722167271482
Li 14.234189661604882 16.560606243391018 15.304121155168827
Li 10.593482565802113 15.270525773856127 12.15949825861412
Li 7.888168572612588 11.976405167907267 14.739870065004864
Li 14.214361111037215 10.697956185133032 10.369842517001903
Li 13.057724735602923 8.075190640894029 10.117053941303285
Li 10.389940657849987 13.4067187672763 10.161447673795816
Li 7.910431068585584 12.407846759854257 9.533854558259131
Li 10.114115546386692 11.338901684338621 7.6015785313017235
Li 14.222494341525195 10.158473406562841 13.430494157848301
Li 9.615370461842426 12.792279114228517 16.976319525893583
Li 8.45795255024366 9.533697142404051 10.301461771109862
Li 8.97449902993187 17.321855084644994 12.265493894859501
Li 10.695783619973954 7.629966635602915 14.609222475542488
Li 13.30946194016301 12.422981321745002 15.004516811004494
Li 15.84765933808275 8.574572417398532 11.648434982616807
Li 17.861824861451165 13.661672799050399 12.243476703597947
Li 12.938604578604052 9.104725433486546 15.800558677323613
Li 15.165734103711483 12.81950244648741 12.205789874876563
Li 15.800852952325906 8.227940226394807 14.745682678999124
Li 13.128027493501383 14.854159686771341 13.626340168081219
Li 11.249357547285648 16.52830300662835 9.67651338804926
Li 12.859983436871756 17.4077790472443 12.265838490199862
Li 8.580975542556725 15.287767402053095 15.073985753332396
Li 10.393757604532729 13.507366287279059 14.211749018509144
Li 13.34066485121195 7.301849380337913 13.055270686202874
Li 17.012268568941973 11.212542605780703 10.435979509449282
Li 12.706974068102546 12.611379846490955 6.084677019064789
Li 9.266872970692685 11.650349639378808 12.142992369898412
Li 13.71561068655401 15.098031814142203 7.774862355526983
Li 12.904663674157703 9.966281370504424 7.641031486791682
Li 12.221531863623998 12.299739216983472 12.180610713254731
Li 15.579887169913352 15.837696947239762 12.407639924439366
