53
Energy = -82.95795719 eV
Li 11.411555540330935 13.056305150215428 17.63659953176573
Li 10.228646343957154 11.24940415469128 15.641373232049027
Li 13.105937136989299 11.31940580721723 15.977543457144089
Li 11.40851064794862 8.971379989103403 17.032246335942776
Li 13.969843410819935 14.31898962470401 16.389491046124
Li 9.145353521167495 14.28847211830247 15.919532567589991
Li 14.414789570230834 8.656123252403365 16.1397748175557
Li 11.535208927181433 16.245958965969155 15.715455900132142
Li 11.912056344591562 11.481334275657979 12.86632597094242
Li 16.093661756200643 11.707173587437193 15.97006362876965
Li 11.609084494447076 13.641858455517408 14.6255036634053
Li 14.479105573330104 17.420776302144063 15.824582574375679
Li 14.505616778023764 13.091654451727138 13.87055208083416
Li 16.484498364805994 14.982764923516749 14.670343285207505
Li 9.608164685308488 8.34773261431102 14.320246377869585
Li 12.149985675718295 9.10256754645939 14.255737722267964
Li 8.460691270119263 15.813145796417196 10.872731604080014
Li 8.867481684346728 11.244513104295942 13.292923432324816
Li 14.748604041454174 10.380658020100054 13.760802486463138
Li 9.145593121740577 17.15404547436581 13.869400445776536
Li 13.768792953654351 15.792712161330572 13.773571897223436
Li 8.844108065049888 14.114584037241519 13.13559163008213
Li 11.080715640669247 15.772405572111083 12.665005099278115
Li 12.14293195545149 6.495553434306467 15.152413439609292
Li 14.442944885979438 7.51882480335449 13.32432263978302
Li 12.415077395231904 18.297493001505302 13.509054944474984
Li 15.547201496324869 17.723393590247653 12.987063622129405
Li 7.326239683226478 12.409914984546676 10.952410915894333
Li 11.097567628117952 15.219666153110293 9.759885764616447
Li 10.048843413794513 12.876537065584394 10.981657020565128
Li 10.74699998190757 17.898720043000157 10.712668618955677
Li 17.033373603710107 8.929988928806003 14.41520395811917
Li 11.684028281212811 7.12082278738752 12.088720894436806
Li 16.86453473219753 6.36189793225144 12.426036547811334
Li 12.82507824151409 13.843749055470553 11.622850674847767
Li 16.27248356533421 9.175678473797355 11.555411897372759
Li 17.14224401184462 12.010931522772063 13.11159677248538
Li 13.252692328339887 9.479901007350465 11.385529300995632
Li 9.60132296561135 16.692423672992383 7.9383689387428
Li 10.19903832849103 9.71441208318022 11.29980182719183
Li 8.561764534226606 13.95008919822047 8.670057156956275
Li 14.439523766021729 7.092627835786647 10.354979840294524
Li 15.722354848647027 14.706213258917401 11.66880322860585
Li 13.471550327181234 16.633432679058863 10.942538426213362
Li 9.726766204834846 11.100543723853804 8.559381177346756
Li 12.232584563375186 11.686801539378287 9.63936691047361
Li 14.856656985682394 11.853965566193201 11.166259021258309
Li 11.930327526809988 8.761836019857405 8.962202614589588
Li 12.648342852749815 16.67524866652916 7.999803245035956
Li 14.711581495995746 10.056572583118516 8.905071379883816
Li 13.942305678344924 13.87197295966195 8.89171456548242
Li 12.58334273681187 11.174025373968757 6.968805546352556
Li 11.234518781682297 13.860311254315775 7.396187464303628
