51
Energy = -79.59180942 eV
Li 15.77020081267787 13.284873771373027 8.396639750465145
Li 17.525557570146585 10.970477805527354 10.47035210085924
Li 14.760056658998716 11.477807557796789 10.551350444967854
Li 17.371584375361312 14.026610983802426 10.941310767744344
Li 15.223141322735435 8.587459675500348 10.829174164188778
Li 12.766954732665475 12.604517638995818 8.761146569797901
Li 13.067975948673533 15.546586266310635 8.383347486907645
Li 10.25743633016341 14.18623810771342 8.019876949368909
Li 15.904782145290424 16.366582251269875 9.267889928917027
Li 18.93080731617059 11.987018591490274 13.052128703341257
Li 12.425229421355986 9.889587899040063 10.13125560079057
Li 14.509780889435387 14.34245913312301 10.641557768210035
Li 17.453647893804103 14.481811930561252 13.96192827850409
Li 16.164316958859544 12.195237096978529 12.760635255588772
Li 10.245091850664595 11.858295332194118 10.161908982090862
Li 10.518269996170341 17.001367263093748 9.811009781094633
Li 13.960021340324984 9.790996090498862 13.052031591141525
Li 16.907524754107843 9.551016942315664 13.245069252328296
Li 11.398098083134151 14.557887379784425 10.589580824900287
Li 16.10735195836996 16.607864428840852 12.308687301928265
Li 13.368522151702303 16.865985112580372 11.17471454039927
Li 8.408047709201085 14.597030151420185 10.316761826732673
Li 12.587911289380887 12.43812068852569 12.188557504827715
Li 16.803927048729197 11.965726234554156 15.548476949624018
Li 9.470532961320039 9.029065141670538 10.625190977245277
Li 14.501950041209868 14.465191264710638 13.407313011635464
Li 10.949684659240056 10.002312414172545 12.850663993372931
Li 11.722329158868583 15.198967156882533 13.348547386725635
Li 14.027349097180936 12.06874162322827 14.855465512110849
Li 7.3849387993347335 11.802502911909755 10.531946200757899
Li 9.115931312628271 16.163326689086983 12.649368563815477
Li 13.84281917930695 17.057717843188094 14.378234926536686
Li 14.901669483697695 7.126958197855919 13.577617711119183
Li 11.330789925560477 18.13379970226165 12.75219359714063
Li 12.273865768975782 7.541878225617623 11.863964246013714
Li 9.379366501334905 13.02884011999716 12.560372593920718
Li 14.301909636042202 12.309270255966892 17.59106185426
Li 10.998883674866356 12.186819143829894 14.733206053219067
Li 15.359913027251702 14.812200708806893 16.031682076495873
Li 11.047469859705116 16.946929742534344 15.550265673986114
Li 15.06126431184173 9.406618085475344 15.798246250154165
Li 9.519282669403067 7.582993373937038 13.394615698993237
Li 12.255694838415204 8.102343345040131 14.817780291919075
Li 6.841644626485468 13.761929662235469 13.007445451894277
Li 9.335007218474622 14.605960016732999 15.136476786017019
Li 8.128679286790442 10.412843756217784 12.999863739222935
Li 12.473093881900294 14.32656903009944 16.01268568110857
Li 9.671723385118854 9.640502652813858 15.665370531953137
Li 12.348587923409628 10.445062978853745 16.540266280360626
Li 10.472599074698941 12.590702245279191 17.435384213999416
Li 8.07128601457597 12.096708713174127 15.36979789046007
