50
Energy = -78.62726086 eV
Li 8.274482735329965 17.0940590539371 12.943544907215324
Li 6.342027584004412 14.471713305164084 13.036941599419473
Li 11.10308802515164 18.75732084712425 12.752645862197463
Li 7.65281392649539 15.445964128214188 15.726795071875017
Li 10.521028973757803 16.56487445097707 15.024792996122203
Li 9.78576211899036 17.665584946294892 10.153085536538857
Li 8.407696469715543 14.894657147522233 10.719638713195332
Li 7.577532850985019 12.275345796569642 15.049290963584689
Li 8.029193521055616 11.946951142665087 11.890550243187233
Li 10.857497703654444 16.131414792775363 12.140859589352566
Li 13.46012250537202 16.698553534137464 13.554772796460451
Li 8.998666659574845 14.3761790111759 13.66102560377265
Li 11.24747925487642 14.924209874908422 9.345958086538033
Li 11.943123409893502 14.122934326534317 14.077979908935045
Li 13.060963986891734 17.15685319160474 10.55277735150773
Li 10.157066828154026 13.541291653884869 16.34236687688452
Li 10.62013961838577 13.274602076509064 11.576529595423061
Li 14.314210883541403 14.211784855502115 8.983960797807816
Li 10.230779302616412 11.748725587652915 13.996742884971168
Li 14.8802659119438 13.897225555977993 14.15937913639383
Li 13.247088855491274 14.46623961655822 11.645662028279265
Li 15.887229511517896 15.299261416923072 11.602020321514487
Li 9.582930924454992 12.138993011229346 9.102934132400842
Li 12.823150951368861 11.58034889206212 12.655568735846785
Li 8.921337312274366 9.005618923938963 9.838824350877854
Li 10.61387220256972 10.383222031147184 11.36667337866521
Li 8.674293895465421 9.352015477282277 13.592270702711943
Li 11.581155202977078 9.174592037455099 13.802995122127188
Li 12.828775874845343 11.608257099690942 15.453433048948217
Li 11.92312008779185 12.847550277775722 7.139454349570036
Li 12.642455035967117 12.153943631976318 9.805419990820276
Li 15.193924816355656 12.363963725962025 11.793207095875106
Li 10.266476596604717 10.122359893561574 16.272730441029932
Li 16.803489262701415 12.267133693662487 9.66717193253523
Li 17.702957515012923 12.851692888522903 12.81847784821485
Li 14.593643972340125 10.097135669272873 10.136406992662973
Li 14.263128282640343 9.221423322278902 12.838944213371896
Li 11.567558782989341 9.965765298201891 8.335527487653252
Li 10.639767435330214 7.090645332927732 15.260764079750679
Li 10.289924552182784 7.2480636358064725 12.160321781657215
Li 14.513485495189023 11.197442858759162 7.6382663141931495
Li 15.71210227918262 10.898583435941745 14.417481367599521
Li 13.575587230136284 8.615650075827924 15.670311580773882
Li 14.088235522994127 8.074759536397128 8.205048717536977
Li 13.190474906366035 6.66205133674289 13.304460144773362
Li 12.436715561042885 8.37369467745208 10.694998982156603
Li 16.851602826414254 9.278982160936708 8.799633315345108
Li 17.01677983109043 9.951414117173298 11.855439271984167
Li 15.394110960554308 7.368298605706224 10.955374249255728
Li 16.244626339595918 7.750054253206325 14.052441430545812
