50
Energy = -77.86789675 eV
Li 17.017251427168503 10.404911860039746 9.048933834072924
Li 14.40093696734868 9.140350610856439 7.662311828865895
Li 15.123433618637725 8.58267258888147 10.522964626002024
Li 15.196835145243552 12.22387127965128 7.357532780512609
Li 15.948532537073277 10.863861035587844 12.146407892132626
Li 16.90254553454356 13.267934326921033 10.211243818018644
Li 14.605171119291102 7.456901425640578 13.39680827398891
Li 16.24142284342285 13.587262761461032 13.452087818235574
Li 16.148500648326603 16.171039212060492 11.38963572538558
Li 14.58104750590476 11.598532622832249 9.865950430725276
Li 14.924224246761616 14.977648502016628 8.704394569122867
Li 15.016856620284143 10.632293356925983 14.99864596528397
Li 13.17703352553569 9.584507228845103 12.498779539578567
Li 12.285639794477675 11.221727519115927 6.995561837970971
Li 12.587126669700272 9.897050598138177 9.579442954571839
Li 11.183169201610031 7.398480370109807 13.265219078861286
Li 12.622733384669974 7.093655207547633 10.617988322159317
Li 12.632911997712823 8.834515891404125 15.304617672585012
Li 12.356628553405013 13.430372026403314 9.014033601316328
Li 14.335138259551407 14.033632997982034 11.26954026383457
Li 13.549842119295748 12.400518196111683 13.449681529415148
Li 14.453424471570141 13.678888347997813 16.03489657525652
Li 13.052440386687028 16.59232938903075 10.682822271201358
Li 10.582922912577137 10.56637959347169 13.642044017062561
Li 14.156356978882767 15.720487183501309 13.626062638606301
Li 9.528715312115551 6.459594328696527 10.581694544148581
Li 10.473313234067458 9.011912881628257 10.99817736913022
Li 10.858061373611038 8.21215923376444 8.15990549335689
Li 11.935439808538042 14.35219060292264 14.869351621463146
Li 9.891212497675287 13.441816115457216 7.122375007892064
Li 12.905797788556725 16.57563067744739 16.328815645754187
Li 12.139671517631367 11.614904632565006 15.88738121254411
Li 11.61353534906413 14.64554334057969 12.051817263222278
Li 11.698324491641825 11.909320462679892 11.385061234239037
Li 10.089333977552302 11.185143079636203 8.853765479676452
Li 11.595407346417273 17.102554555984934 13.58862778655963
Li 11.677712897910803 14.104035547838343 17.661210719323208
Li 9.575649753796434 9.347579248691666 15.824894943126454
Li 8.378993201511957 8.532971135002208 12.809599134301433
Li 8.07084002487061 9.037346410302519 9.605960025483256
Li 9.504310051156715 13.385055370906631 13.419575641401766
Li 9.810441207282807 15.759985928719422 15.700046043921402
Li 8.762086049230208 11.312632703344944 11.382196385418073
Li 9.526326496943282 13.91534086158889 10.145730111557343
Li 9.419494323098872 12.61745580039661 16.135080967988273
Li 7.378124808039785 12.192710028743244 8.899226514761827
Li 8.9124663125584 15.944663938513536 12.604846623788832
Li 7.582272881799291 11.29326822478695 14.12097871613794
Li 7.003789270459099 13.542427034449096 11.871179232143565
Li 7.206607859500237 14.349642682203521 14.816417534540273
