51
Energy = -79.4483531 eV
Li 15.496135560701807 15.948476183752245 8.513144893693601
Li 14.18991551355736 13.84967158527143 6.698787320738589
Li 12.303930635883402 15.662156221772692 8.589886930753874
Li 10.76982805267595 17.284082331567284 10.831253012325936
Li 16.65616003049708 13.105767801013135 8.364099638657514
Li 14.0417018863076 16.337808635281103 11.107269167744148
Li 16.40254027828059 14.191615573972573 11.042503358564563
Li 14.00993949948476 13.729313118703294 9.489955916541863
Li 15.795908147682258 15.35190373473494 13.806695182891277
Li 14.644410756039045 11.018502632356778 8.20418903652172
Li 9.828006858472527 14.144097029652245 9.604312970901075
Li 11.849786760494549 12.455837647303913 7.985694785524375
Li 11.587719343606457 14.876959706238555 11.596268222265342
Li 12.920075058646217 16.459277876997124 13.814141793819955
Li 13.896761584421958 13.614048122456994 12.608496561316336
Li 17.331647166898854 10.693764078178162 10.261267227854617
Li 17.055563825695252 12.264323356436464 13.258177117889524
Li 15.947686226556682 13.35434843453304 16.088936839424488
Li 14.520601366565604 16.360726848095542 16.424181772682708
Li 12.198762367836158 9.597342349088441 9.1859047661819
Li 10.063285486350843 16.825660329041288 13.812777659809
Li 9.431809796562208 11.145717785403795 9.205401051053805
Li 14.9799511679728 8.531453047894923 10.027348057632137
Li 13.343018910007201 14.007138490147312 15.39589707286561
Li 14.927645822849856 11.380869152988417 11.045716300786518
Li 8.469699973497557 14.903575546506975 12.23395527250224
Li 11.959038701182141 12.032982468754403 10.948899504204942
Li 14.61842052443717 11.409799879638495 14.15057393628683
Li 16.14071849748112 9.314787324238797 12.839584106073506
Li 16.54024180990384 10.30527196382669 15.802517468115079
Li 13.616289232208487 14.08404358394497 18.160215919043807
Li 7.104171084587258 12.85196657144821 10.257985411450846
Li 11.355615985334916 15.808281066804053 16.47119953736566
Li 10.722071284411415 14.048686178332447 14.105712053550882
Li 9.275690696307546 12.145032544769743 12.0605415203186
Li 13.208749889195692 9.4190734035428 12.135192775769868
Li 10.34248731287094 9.392003348880428 11.402172633263895
Li 9.444578300713939 8.152548408579177 9.037123898809838
Li 13.660253470969815 11.297716623489245 16.788133624665996
Li 8.377771984932936 14.82518853861499 15.3863244488535
Li 11.706571786615415 11.20534274064048 13.94685915437189
Li 11.937264714137763 7.074539794286502 10.80399290796373
Li 13.841557579926988 8.824593036745908 15.014890203947708
Li 7.48395944559924 9.872855761126516 11.132542685609483
Li 11.088837285545525 12.832639477917802 16.909536097358288
Li 6.807643870919151 12.386602219333348 13.278421540694785
Li 8.92959388039167 11.956275568767282 15.227408725232516
Li 11.221288152353571 7.917039366325007 13.74139761323822
Li 8.900586642356794 7.119139276424277 11.860190147188309
Li 8.73866694534376 9.526414431949831 13.823820817450954
Li 10.968587588052538 9.73567014525306 16.24867915101248
