52
Energy = -81.44464697 eV
Li 17.180176681794137 16.074206653850865 11.763580976666775
Li 16.190953942378005 15.821511897327719 14.656136655330153
Li 15.38781599996797 13.001683626106972 7.787723587785654
Li 17.385771269696466 13.244737517741138 13.544903717047355
Li 14.384502187868836 17.228106436149815 12.718119434567017
Li 14.752099500151724 15.792439081010059 9.718138244091088
Li 16.677772912277675 13.079209802148716 10.603546179352497
Li 12.433217736603309 18.095599668273042 10.483659657032662
Li 12.72017864611523 14.446933242053797 7.891908339417693
Li 13.407741932930067 16.389632604066986 15.891383783737682
Li 13.826295077900257 12.981209643077525 10.121028594517151
Li 14.933389868929975 14.57133759928103 12.427209909984946
Li 15.110693231097668 10.484041445084623 9.737355232928874
Li 16.27551009775062 10.958500042933812 15.384146643041998
Li 14.523243787955863 13.48041814323642 15.154096054811335
Li 11.569339993322274 17.443373221547095 13.521940589788194
Li 17.019835029816374 10.075484165810114 12.333174164630497
Li 10.661593957200898 16.188969438686367 8.802219449324209
Li 12.228050785371613 15.443015201454235 11.186156013776355
Li 12.471438728879875 11.426155989866592 7.885144042814959
Li 15.027432221964721 11.782522876849354 12.820827850521104
Li 9.57034052234201 16.85079054230126 11.535509412598481
Li 10.815507062733722 13.264359961984269 9.807561465752626
Li 12.394580092143222 14.786874690570734 13.988467131222647
Li 14.333205173314932 12.149055805375689 17.637958638087735
Li 9.821454154495775 13.463955802990508 7.245469088373126
Li 7.244475024192798 15.217308157188517 12.755349496946584
Li 9.704507673505564 15.331035045607292 14.899990692644476
Li 9.220485588587465 10.895410267027149 9.285183567124047
Li 15.529566147620285 7.5713032657704975 11.200479050988159
Li 11.944649846026433 13.843553685764059 16.811932595293
Li 13.324981256034276 10.770314640855936 15.128776342413966
Li 14.99094779114928 8.373343491917366 14.264919086983808
Li 8.339715521771442 14.64008860187361 9.775034985783536
Li 13.797148655186714 9.478624596982561 12.037993647865067
Li 14.403819455867458 9.17430459696922 17.232582209671016
Li 12.386166855860004 12.451452186470226 12.49279958236411
Li 11.908280155598 10.630467918895382 10.483065298110827
Li 12.91486525832656 8.214637397523521 9.533780267417773
Li 9.715812476923249 14.08658673964125 12.380754725891828
Li 11.547704933512625 10.623147305245551 17.25224033747505
Li 7.275665509822932 12.34378116700979 11.300387561127163
Li 10.781751556850798 12.25376725909739 14.78958100487439
Li 12.089880171714073 7.962014484953051 15.583888533557388
Li 12.608515230966407 6.949405692343298 12.533419008965245
Li 11.353523186284782 9.424550211834429 13.397583791591659
Li 10.17142179400742 8.38938941840868 11.034130346656942
Li 7.919929943453858 12.445391619530929 14.22030590766379
Li 9.677719561161032 11.273591382184804 12.154384158579605
Li 9.314853798292036 9.745427429703414 15.206321805950962
Li 9.703152668688665 7.085113012047709 13.745979997577594
Li 7.736679960344992 9.442739083147575 12.550737973268713
