53
Energy = -82.93255769 eV
Li 14.354206035217251 7.75285442425913 12.550785761099133
Li 11.72411981463046 8.765283828978768 11.723266245900545
Li 12.088058364185917 7.079442797510794 14.582779477395592
Li 14.016022904901632 10.557885082672316 11.645616649491886
Li 15.971251899559894 9.770376814448323 14.016942503152613
Li 14.55411742993426 8.19263074501117 16.144311456661683
Li 16.540841923259677 11.062009087213566 16.689274412798348
Li 13.020840865032826 9.662866144927117 14.364761013622797
Li 18.12020152416321 11.955140552137138 14.332440282255059
Li 13.847498685718302 8.907970245417104 9.456270624469248
Li 16.719044415618846 11.180631250230174 11.254148623186397
Li 9.298583385571838 10.546252329375067 11.353487843639591
Li 10.063223185755955 9.453875891607499 14.213229492565013
Li 18.44145525584336 13.235907473780832 17.443568195098212
Li 14.76681428744162 12.021247637553708 8.705326603365076
Li 14.766115351156229 13.370026091771518 11.063495168141879
Li 17.3012765421612 14.044592776015559 12.370768269646957
Li 11.696673618637726 9.285575093729022 16.919130285076548
Li 19.16575753050902 14.806148711783468 14.924107427437631
Li 14.925926043018238 12.269865704035825 13.73240043404439
Li 13.864717753286373 11.276753808342166 16.48873112236614
Li 12.029832594982105 11.499796989455758 9.98204807755098
Li 15.110758413248663 13.811572817319549 17.90663682909565
Li 16.53859170599798 13.94464034539436 15.553300147863744
Li 9.928691627807277 13.571545117912777 11.353119029883576
Li 8.754563528796607 12.309832942670395 13.788928197203052
Li 11.117805154744335 11.955294834136556 15.582791527006064
Li 12.619038925190313 14.055426803121813 12.407889682362185
Li 17.462540501120287 16.19410633981789 17.38922843853271
Li 12.667520648026885 14.471196906142918 9.474588485581684
Li 15.100885363922048 15.296575185514792 13.399346220308006
Li 11.541096137338283 11.586237627329334 12.865404938422117
Li 11.945005603008488 13.025794938788092 18.041570929508353
Li 14.767352470209936 16.475104576977895 16.175835538655157
Li 17.19647498967663 16.8586202275859 14.567398251459258
Li 13.33881371375711 13.912635772948292 15.41301700809871
Li 15.789580427826772 15.182031710367362 9.369258640205508
Li 8.164205268108793 15.269457271209058 13.366525939119866
Li 14.945582013228703 18.35091829822605 13.619589840826105
Li 9.09360863240114 14.244703934895853 16.42207101965216
Li 10.867181006050329 16.40031541316074 11.856836853642015
Li 10.65093691265245 14.53617075624297 14.239384378522798
Li 16.799200511626147 17.01560473798842 11.664771097424921
Li 12.721993766364895 16.60683740009693 14.078243064547744
Li 16.12887609213872 19.143495369205578 16.11635498282641
Li 11.810233197637437 15.893958249555077 16.806322582195055
Li 13.889716374094062 16.698096630444372 11.245780476777712
Li 10.122801332418051 17.42913838678931 14.748930401732652
Li 15.089916911321934 19.527405532507867 11.099752685509674
Li 12.911732512435252 18.886723078187767 15.750563752872496
Li 17.353179890059362 19.65032933711318 13.292702849352974
Li 12.317312345119806 19.1476062704736 12.736012431575306
Li 14.634069167588729 21.032606648464604 13.919119258883118
