50
Energy = -78.42020715 eV
Li 16.57316998466693 9.755948180920866 13.792849043426077
Li 17.43873650137963 12.590381642790213 12.81733564515616
Li 15.778027681401236 12.537800641286097 15.379365534225542
Li 17.124304370767142 10.23488344425866 10.526995847222265
Li 14.62604428732498 8.69752858711723 11.56849226889754
Li 13.967915992020556 10.658102582451129 14.017836010025244
Li 13.672985176195576 10.930754079373255 17.028558401252276
Li 15.151028672558713 11.534114876817451 11.78270521773227
Li 13.121360090686327 8.2605152780947 15.271573723740726
Li 14.018286761001727 14.267895467501619 17.200830567775373
Li 11.901391131822285 9.083422035443725 12.47353619846682
Li 16.457473632504314 15.35419498345897 14.230936468653955
Li 15.363870662262178 12.352600739578786 9.097744078547738
Li 16.16180838439475 14.57027029537127 10.949206320715211
Li 13.093982200850549 10.679777370390314 9.960597704137703
Li 12.79618118056927 13.147607204547722 15.114839963631026
Li 11.386998330643886 10.559969394929308 15.152776700327692
Li 10.93185000229702 9.315402889009745 17.502565257557823
Li 11.05874864753906 12.515762833428543 17.25271806157573
Li 12.088691926199155 11.956886996052242 12.385322025154936
Li 14.547609171514743 13.841424628449353 13.108482366323901
Li 9.858386751552274 8.229937107089842 14.624358875678686
Li 13.591811808562394 11.810652461748196 6.885365507201423
Li 13.610116763210597 16.110102509630885 14.767771813247535
Li 10.875926125873857 15.406600569761874 15.671563274974442
Li 10.013216752608491 13.016748313476684 14.225062960287925
Li 9.465617826319251 10.547104721822771 12.85397333032144
Li 8.618505385023838 10.869443828373216 15.737456683799929
Li 13.248290885884847 13.753515342226635 10.548182048743575
Li 9.138365822291137 8.018325710230696 11.414937619700742
Li 11.204518861867268 17.550943024571765 13.136578635181293
Li 11.887915734624416 7.972644893811286 9.5595510270182
Li 14.71067141763906 9.270520821215877 8.437264791950511
Li 11.746452196562934 14.874884665960947 12.925237664696075
Li 13.876745267734535 16.482092283007162 11.769965827897867
Li 9.872718552386313 13.051532924370912 10.946671777674096
Li 11.523261229864662 12.619145282472497 8.558315490488512
Li 7.08773075712569 9.354599832692946 13.35322516502639
Li 8.924172274630958 15.366678811474515 12.496100066300517
Li 10.286740348076528 10.275234795556836 10.01958667312078
Li 7.4262802443841265 12.496265789475311 12.867963754544418
Li 8.797684101465865 8.58303265010835 8.353635501751393
Li 13.088993174789698 14.809328794443802 7.840255236825516
Li 11.11170174596866 15.831515946744547 10.365278988067194
Li 11.368710796570038 9.95843257193465 7.280482421332032
Li 10.980071648956978 12.908147956584813 5.832588435149199
Li 7.499104341927212 10.575687191305008 10.467214917061888
Li 9.729340870731837 14.62734472634053 8.058283146243616
Li 7.463168998522875 13.745312814971067 9.950832346249296
Li 8.839715162981612 11.69682304753283 7.898947513243997
