51
Energy = -80.01424692 eV
Li 18.018916288359048 12.433179691758339 11.24177308419444
Li 15.428410571136562 13.749637254360925 10.246522000590172
Li 14.265803215616051 14.011915565101786 7.464426609684104
Li 17.880562162575945 9.527007083683747 10.085357764837052
Li 16.56849309871837 11.729252508694838 8.326962061104407
Li 17.601017919307893 9.827611271415707 13.095394762447983
Li 11.58126436611194 15.609481456420365 7.71600781004472
Li 16.18067580832915 12.456332021947153 13.674572052503667
Li 15.847674039536306 15.330134632014756 12.47539253511499
Li 13.960211787471874 16.414332925217643 9.736233697032612
Li 14.170550132836748 10.949878437701237 6.387189667599884
Li 13.84012042565943 11.625538819805097 9.075983394856896
Li 15.783509283122008 10.832930850726848 11.183995193900772
Li 14.481193795096976 14.508504188368406 14.97568431768475
Li 15.02719040993955 8.994999008866484 8.753593081030356
Li 11.559270851648622 12.415098076434496 7.445663091718374
Li 15.4614029889538 7.86311819641313 11.612883222155025
Li 14.51027618663436 9.81424005647775 13.734412544494802
Li 12.492359350982952 14.124542129187212 9.87402126371279
Li 13.56142797107221 11.769406254183446 15.675509559581961
Li 13.200231436385039 9.53367465766338 11.056650748407309
Li 12.882131742740459 15.526255596051472 12.566556601451506
Li 12.7989115730956 14.16735166573622 17.516866589778694
Li 10.653316457039631 16.21410185055739 10.649668411528173
Li 12.252362177012083 16.43927481287186 15.491862142157732
Li 11.73985006319738 13.717335833708344 14.868680577244412
Li 9.86440811104791 15.957595788949067 13.70075151005738
Li 12.80427183066642 7.007549455193657 10.042718504487354
Li 13.64874791161155 12.716703053323243 12.33731988669735
Li 7.874937570429054 14.66054306452498 11.481588539133396
Li 12.355410548630628 7.7487231469775155 13.03021220807012
Li 12.005100508593449 9.48794716786502 8.259343027218753
Li 9.821918415236025 14.593148315732034 16.621361634541945
Li 11.801821924110472 9.352384066568051 15.629877065584603
Li 11.674246183543012 10.862636391944289 13.218327116730887
Li 9.60887909993352 13.653550777804686 9.324040581307596
Li 11.252195786762726 11.56125404899479 10.37333127992333
Li 10.89736743114188 11.786286933055923 17.438350765197928
Li 10.579494764513795 13.656647011074874 12.285330255736714
Li 7.976932367619763 13.663994091285584 14.285747463258268
Li 9.127322264266372 10.646256443409186 8.77812314891888
Li 10.318742533583633 8.876543416513863 10.867231671876864
Li 9.66842483394387 11.61929439251875 15.029493914631217
Li 8.927801496041424 9.456974503755378 16.650134813058113
Li 9.434455409871626 9.014135829203704 13.584381074355097
Li 7.0078803493042905 9.553583413015224 11.30182370158601
Li 6.839829709735715 12.337267069722667 9.728776874819781
Li 8.61466360651756 11.61380482238544 11.913194538540495
Li 7.752177441510179 12.246833492845044 17.02243682411508
Li 5.838819391150751 12.39936662913621 12.447078584686773
Li 7.06747358980124 10.585251093278371 14.402114010721736
