53
Energy = -83.32788489 eV
Li 13.50569891916714 10.173812096977965 6.4963233460178715
Li 14.795089712396445 8.546729035509046 8.860428899755592
Li 12.976485290604385 7.069041128693262 10.83287303733051
Li 11.87169777721385 8.106672072731735 8.223229599620282
Li 15.453191242424166 11.537498946406894 8.638735566016006
Li 15.174305232664482 14.710616981110501 9.251885604404272
Li 15.870982502194089 7.345070905088643 11.680073701234292
Li 17.183663548237124 9.681824433896033 10.371482783766067
Li 13.110271806420142 13.137279988564988 7.46479193493751
Li 10.6364621705181 11.242143701799069 6.990875576201145
Li 12.530315225047014 10.76674375529399 9.108818238612358
Li 13.411912739701627 16.524665998286206 10.928862806386018
Li 16.638998119859412 12.418504322731264 11.578565165557452
Li 11.320319993581176 9.192012976776894 11.372654995374678
Li 14.01870877975736 12.823944549893955 10.768077150530617
Li 10.11673291873404 14.18986734038094 7.550798815735991
Li 9.78752479730444 7.003839297898615 10.789433988318345
Li 11.559354610978238 6.87367290420411 13.49049708276478
Li 14.473398799860323 9.906305590871707 11.320980751448511
Li 9.51114221650925 9.454109938700514 8.952447642564701
Li 12.637389583328217 16.191905304711433 7.859271533751254
Li 11.729897266811006 11.864356917323049 11.987802718918578
Li 11.947068386660842 14.319917900667669 9.76611564388149
Li 13.952328915232304 8.4120573515951 13.714357223981436
Li 9.88709938428636 12.24826117098802 9.865256554164064
Li 16.53589039531619 9.930531040930301 13.414741188121367
Li 16.79230166415565 12.650998506903687 14.785194932380685
Li 14.303851288814688 11.961931939633734 13.609918199333675
Li 7.672321731872228 11.857404838475656 8.358428285335892
Li 12.414816559417616 14.542675658098817 12.670738455838682
Li 10.319320044584371 16.5457808736119 9.903697397844743
Li 8.044390048214028 14.702343964568565 9.620282171853985
Li 9.375483876777013 11.81084248805411 13.576248952384004
Li 14.653790093905279 10.409733962253844 15.936027332953413
Li 12.153886610330282 8.249663060145068 16.313347343514227
Li 9.679996736070654 14.371972889797881 12.055572159060892
Li 15.193760204745798 14.712822416452639 12.988602280350621
Li 11.893533628125994 10.193676026165143 14.361323111736194
Li 9.403658777615423 8.703417432664649 13.566488849308175
Li 8.3338249610702 10.130960017580298 11.38747475079591
Li 11.615833425101785 13.181809103661264 14.91104033497954
Li 7.89800553960454 16.42794543907788 12.231354180525624
Li 14.186015968138252 13.52129522568974 16.031670488594955
Li 7.159509681090525 12.724111555190518 11.505096733604212
Li 9.548165388168291 9.950293043630085 16.10806432495549
Li 10.983411660846611 17.058089435042927 12.71001370022173
Li 7.371143854386007 13.975466190268522 14.10362046735694
Li 12.922420618590907 16.040515878751375 14.940493805416828
Li 11.990730459106084 11.43015227250036 17.082427768258437
Li 7.00320691143963 10.821083186529295 14.316658576757394
Li 9.069415587282375 12.82008537810207 16.33108189705508
Li 9.86441249937051 15.418093186495424 14.840713827050678
Li 11.503646290205076 14.542045019244133 17.364786842074793
