53
Energy = -83.03101718 eV
Li 8.829070990848432 17.652063242805674 10.559945470595997
Li 9.539022903717497 14.81901901341068 8.894276450729848
Li 7.361223079672373 14.824143811288423 11.049987621371136
Li 12.044664692861494 16.70394279131261 10.192044618340056
Li 8.173286584931532 16.296313382280566 13.441904245931577
Li 10.955352495625766 17.667656153658697 13.126011253769695
Li 7.822095121372388 11.952636784100912 10.699235015310938
Li 9.98392460411932 11.723045656663576 8.183984104173112
Li 6.499716664024023 13.008970618056408 13.58474762029749
Li 12.4291876245332 13.775067916608585 9.194271619211895
Li 10.025246758414571 15.444340969038073 11.55367989029373
Li 10.413551080709023 12.742232932706035 10.745450759554105
Li 12.976530479051123 11.760866164259836 7.099317319183794
Li 9.563517531336569 9.440423005354212 10.25332393047994
Li 8.168809549508214 14.535094360689854 15.745845225822881
Li 9.153079406587578 13.189840327998661 13.225369936054589
Li 12.498069329666837 14.283098586566798 12.077462956442277
Li 14.774343132006921 15.223539555414108 10.326491802164261
Li 9.812312838316572 17.098705650490068 16.08690082771376
Li 10.798060959170176 10.60885686192687 12.519891219852678
Li 10.910330543372172 15.140051288546445 14.389714430194703
Li 8.149322012138803 10.17476767225709 13.128033941417636
Li 11.424831154873253 8.93871262895504 7.6386240009655335
Li 12.227588240903366 10.716993894284332 9.762792091815092
Li 8.810114408063095 11.752722991216299 15.648602653663934
Li 15.03622977717076 14.152879508938629 7.6163416379106605
Li 10.876616243953583 14.200956175673412 17.002770277690875
Li 13.817481206424452 16.57156764195893 12.941936878049793
Li 12.772803431735506 16.468938134420597 16.010197142926884
Li 16.19031177893444 11.481444175216842 7.068369260457305
Li 13.496652771641735 11.733971524070691 12.179161977367384
Li 11.756187129803276 12.089809745666418 14.954682181971009
Li 14.302344789923959 9.442978513928118 8.220486883572022
Li 14.914687747012248 12.092716339044388 9.63624661008249
Li 10.546932787638339 9.334099684809665 15.243202134123793
Li 13.795650264788181 14.147703135648419 14.601992245937739
Li 12.944518112389913 9.168748939373891 13.481143791036745
Li 15.693266503029239 13.71650993187076 12.423807184160157
Li 10.950151075245598 11.237524421538698 17.74269970577014
Li 12.317233798904718 8.010516261648272 10.384450609820188
Li 10.632098707008296 7.600178035101329 12.766611676612582
Li 13.575473569024144 12.899188133205032 17.200151046937638
Li 17.39833645797289 13.147719801154182 9.649842971980041
Li 14.761015364544965 9.239608587553747 11.210497309671545
Li 14.89624304683109 11.477998248195588 14.557280731948232
Li 17.04046611042695 9.822699078199234 9.441856088655568
Li 13.299090720388474 9.890975322701378 16.342550919021456
Li 15.108000241046607 6.989052775181364 9.543528148076788
Li 16.74325132276302 10.940126264750148 12.175895741638607
Li 12.810334158591587 7.056792536976324 15.258160174682004
Li 14.017628987271982 6.62534099382485 12.454884930537611
Li 15.525644785005195 8.569856583564013 14.334593587151383
Li 17.05705166937 7.787114014563504 11.783653190192036
