54
Energy = -84.42290925 eV
Li 12.257572160896217 13.792167809423484 16.94632236118657
Li 9.803340789027578 10.860563408090835 16.742245843576633
Li 12.259904623025045 11.32207044504643 15.410263289043256
Li 15.12824364568247 13.13520076380146 16.193308208381545
Li 11.98731735536209 8.70164288129487 16.864611390127124
Li 14.075990859657713 15.748532425384184 14.965253260851437
Li 16.539246491884462 14.56641803941368 13.729762465729639
Li 9.678638171243724 13.517714077699356 15.500910929713436
Li 7.838933827939927 10.220269324606075 14.532727095046656
Li 8.834813873036333 7.939970844292775 16.368020976268625
Li 14.886235444474945 10.189233939710704 15.594296557331065
Li 11.146788149479736 16.34541511616741 15.33011684431807
Li 12.292469694837354 13.804936785059082 14.0218987368969
Li 10.463996885112477 9.049142817034825 14.400600510916407
Li 15.242108335792505 17.29056065774509 12.58326330691335
Li 17.324798220842336 11.670521985228746 14.334965388182775
Li 7.220180511800401 13.075382430324598 13.63387062183216
Li 13.151625956223942 8.382558366302263 14.022096041601337
Li 14.507333503308597 14.689817516395214 11.602306369169717
Li 12.985196113709543 18.672666061057583 14.098251498303929
Li 17.306115193383132 15.35055336566407 10.933650606145623
Li 8.582212532951305 7.462129370453752 12.956330757989983
Li 11.0009323036703 6.368467798764577 15.081625541139644
Li 9.80740105338835 11.889265686227978 13.184516190207315
Li 7.803039063605846 10.516256493207596 11.592808247927152
Li 9.56403017220867 15.130689072974695 13.100471768842164
Li 14.683314000394413 12.391053638587046 13.613330108311214
Li 11.493927680320459 6.696365072044694 12.188253944016013
Li 12.314134167897112 16.39466386189079 12.611772047526593
Li 10.162661532872386 18.20264792013204 12.981302595424435
Li 15.405248060516874 9.945506161477388 12.451561040606535
Li 15.080654448393139 16.844908568623392 9.651382302325036
Li 12.374759292811664 10.813700190126395 12.677999136976213
Li 13.687015640123478 11.984236968657658 10.67554359511074
Li 16.58838148032036 12.432028266405501 11.33226706859734
Li 13.218533369194981 8.668170441863387 10.852187806395747
Li 8.484697854108871 13.430995406842676 10.898195890186017
Li 10.098635955200278 16.337931622369627 10.505990716925107
Li 10.382478464492559 9.189652085771185 11.469212371150494
Li 12.592601971222937 18.38353736414624 10.877568401575811
Li 11.469753958834968 13.810570471305311 11.34111107357642
Li 10.66270087792611 7.186638733441812 9.378938028833094
Li 12.654119200848871 15.397462368897251 9.405329058256896
Li 15.066874236330918 10.307320099352713 8.982646580443227
Li 15.426186612493398 13.748918336252009 8.910959452106937
Li 11.978165384737943 9.664661977242211 8.638243395076955
Li 10.519094552951477 11.58594643114214 10.01643227140963
Li 13.570445353681931 7.423915335788457 8.083424291170683
Li 10.118187615124876 13.95275336756131 8.45288366088001
Li 8.913456099151093 9.53693979711924 8.788056151812887
Li 12.76963512445729 12.57313469189217 8.129778445513072
Li 10.922187505865523 8.255963444050506 6.503652503196427
Li 13.391862504215526 10.11775825918311 6.345636277870763
Li 10.454119456359605 11.26614273397927 6.837198915064211
