52
Energy = -78.41403246 eV
Li 11.195511483275782 18.11220689861074 12.062355134431197
Li 10.22277916128859 15.655487266872731 10.487078069964046
Li 12.89335006071402 16.60778736448085 10.288435897916102
Li 11.79703136099986 14.650271858158261 8.181463167931897
Li 7.5869816892788435 14.594660668098589 11.234633520389439
Li 6.176135562257239 15.95915181293223 13.388757670719144
Li 8.878731734941764 16.75679626463133 12.779289237062095
Li 10.84694667796231 17.012001107635342 15.02966970226505
Li 9.358350979714839 13.103462540192366 9.42057346972924
Li 13.89267648759169 17.638243526838103 12.98145419150575
Li 14.658495133446324 14.601798104684448 9.255480043132872
Li 11.84048876518401 15.32435290248058 12.89888693714542
Li 6.696469588182188 13.096218146455463 13.706072544176358
Li 13.679124452901112 12.147845781449858 8.355802610892258
Li 12.158741318034684 13.366772151975962 10.789647382179087
Li 9.610763494135117 13.393723331232774 12.885318176934835
Li 15.75681868940008 16.722543175721132 10.89290171217473
Li 7.5160624667448825 11.601244289748657 11.427972970022836
Li 11.140894995117375 11.075683774553687 8.409258727815766
Li 13.466428576337812 15.926728026399786 15.2856640261446
Li 8.340974854799965 15.235119830846509 15.237572770449178
Li 11.066871811453147 14.112527181942577 15.49094451994301
Li 8.44653061201001 10.169377943950922 9.078505676181038
Li 14.62275682593032 14.588761359792056 12.75510043889975
Li 10.407780631309047 11.032929417271934 11.330870468386575
Li 17.09859483353307 14.088162570789827 10.800641796358859
Li 14.697287930754998 12.183440510214 11.235136557945246
Li 8.528297283451643 8.76239485528597 11.69518523864472
Li 12.056589776154693 12.02991287164702 13.621299393015896
Li 8.755040972879186 12.30807801125768 15.553492319202613
Li 16.55696265773878 12.2686069364467 8.635446942272868
Li 10.98156811640551 8.617536755968347 9.904505498534713
Li 16.078558401474567 14.825500115668838 15.387824413568865
Li 12.982054298208563 9.872312159278122 11.833153061250231
Li 9.752788133448998 10.076474751635228 14.079171757369433
Li 15.094323877331231 9.83381032315181 9.602630371033353
Li 13.684063602749104 13.053361313660444 15.791799039124781
Li 17.4741865326072 15.769516187522454 13.068569250161723
Li 17.059689389863543 12.874023222817609 13.44667951244411
Li 11.287371335180174 11.254982904218428 16.447204956894918
Li 14.717899089819582 11.0807606470633 14.017834097203327
Li 10.962447220520412 7.707579829150882 12.740854920655432
Li 17.388325530586982 10.976901583783063 11.31288245217802
Li 13.65715112538123 7.434352789532868 10.30167552521535
Li 16.45088832192236 12.109661694708212 16.216463903857825
Li 12.430138208489268 9.239922715287875 14.827839295517622
Li 15.725005581485895 8.896859371459673 12.29905803593584
Li 14.058501261535525 10.413082975408242 17.041226518850685
Li 17.61492364067821 10.105937549268544 14.269681481193068
Li 13.671364392745351 7.1158076335190845 13.150336730721014
Li 15.22266704021813 8.393917722774708 15.20258467048961
Li 17.020338898284855 9.45546360135233 17.162383710595737
