54
Energy = -85.34818538 eV
Li 17.38200978302557 13.94040493135008 10.216634409213913
Li 16.926355792286806 16.14425368055503 12.382112617003301
Li 16.008813032531645 14.471771945807614 7.276093639498735
Li 17.31850316460705 12.99896117432452 13.269066566323438
Li 17.068044865820447 10.775891335842694 10.97447599228347
Li 15.018649220568154 14.2401950209245 12.236617355258648
Li 16.196302528098126 10.084078305085828 14.037978407158846
Li 16.733380914018397 12.270810618296542 16.295723143477186
Li 15.66387927634952 15.012649286814568 15.024159822134726
Li 14.977365229089633 16.074606766153316 9.834704301886024
Li 14.556341443505358 11.456250672901607 11.708612774455839
Li 16.864773737118863 11.638197182260289 8.002334384085334
Li 14.964825190101832 13.047173399274985 9.365925046419889
Li 14.78020831318804 8.424801653513953 11.88857655642294
Li 13.841027768394943 11.932900152191284 6.941129991934378
Li 12.71450411067145 14.625780962446562 10.821554010447288
Li 14.570237397156488 9.848667228093298 9.199271929621194
Li 13.658486006791263 16.72779138932318 12.668045833832952
Li 14.22852931261228 7.592515211848779 14.87362961001135
Li 14.623470506588939 12.416107219586086 14.520299743577933
Li 13.842428591882864 13.22894874965654 17.17804995121286
Li 12.030154476511957 12.48072496745959 12.523712703028126
Li 14.2470010845224 10.211398078323697 16.549967338495087
Li 13.200024513054528 9.916439905096743 13.79879458398242
Li 12.925233610951947 14.753402649467262 7.877323732705552
Li 12.621140021440924 14.536102446134526 14.54455719460593
Li 12.36913670787701 12.123553027770647 9.400139977148111
Li 10.29989456759736 14.340235371347777 9.374876119588224
Li 11.927769093478997 11.72417825976162 15.585594406248914
Li 10.121754955333293 16.10259663925188 15.463862541242644
Li 10.79526640338022 13.699711076000943 17.27450071731964
Li 11.750423537147551 10.942937757039122 18.26566108034107
Li 11.705537630526885 9.561782531113847 8.163014755109332
Li 11.68641017943205 17.013146549168724 9.936713500680945
Li 12.639190770577704 7.199923767851422 10.03032040725453
Li 12.234385999269131 9.721642406386634 11.032373825409003
Li 11.401754369899106 8.883193458257779 15.861382291768493
Li 9.840469851984674 13.466158976047337 14.55185900904985
Li 10.610106623601444 15.61996736212254 12.455081462290048
Li 10.609935244456688 12.367228731540873 7.226703002461046
Li 9.855911863980632 11.184749926123432 9.94673972982517
Li 11.644993548740766 7.653851606184325 13.070665904745844
Li 10.14231932266166 10.505606757887197 13.192011287868631
Li 8.998592183953809 13.211292962010049 11.748554484635857
Li 9.261406286682647 11.0068977428569 16.354803543571563
Li 9.687901835082318 8.38169559924593 10.947449509973545
Li 7.890071734705388 13.929123050601847 16.480734180882553
Li 8.148619220766097 15.777577387894404 10.6557160591079
Li 7.75120482756197 15.15054904853871 13.717889351764663
Li 8.425525239883585 8.678330883230906 14.126360567468899
Li 7.689062321010256 12.918834254510063 9.107925232339449
Li 7.426988267678343 11.878242236882288 14.166060426923801
Li 7.4843401432923224 10.514922830664801 11.593014653756697
Li 6.276936263760326 13.428284139168472 11.760442496793647
