55
Energy = -86.99737864 eV
Li 10.343919271684706 8.570066187484413 7.0081874506756945
Li 12.67425592966835 5.947630057381623 9.226934431373218
Li 11.041496810712875 6.490258529445306 11.616158610238854
Li 10.442273452015453 11.039614113550687 8.359023365370625
Li 8.196655612513371 12.927037073216107 8.060457257861623
Li 11.282578466433916 13.495322091439519 7.096651122916717
Li 9.366654911589551 11.26219964270861 5.7580510118950015
Li 6.875130436315419 13.061825887544492 13.026148564302158
Li 12.607483538582366 11.134658236828471 14.181105396767242
Li 10.55469595187902 13.78540307021458 9.843801737049647
Li 14.147532294730254 11.058259985579918 11.73657577303067
Li 12.851739381007684 8.665195539738713 12.274927430810074
Li 7.850724811136742 9.881481117032168 8.166069090650621
Li 8.414448194787653 8.171263467125252 15.164636537678483
Li 7.311657143901419 9.964402266366863 12.851860543974713
Li 16.01891511159445 11.769609280919315 9.792434634359111
Li 13.486090533285717 15.884945144774406 11.824260546112646
Li 15.498851027203711 10.203370683163463 7.197314555698286
Li 8.574014572447965 11.845665712185047 10.824794715825274
Li 8.132890030404136 16.49169687490415 12.972662561667205
Li 9.211750998998905 6.7277051165025865 9.19752996604354
Li 11.179317073099293 15.820673285386375 14.154047004314487
Li 12.461703657401596 10.822843314082972 6.130230587103958
Li 15.83547505479633 8.950839427961602 12.558539242652053
Li 13.399382723391229 13.445783844020944 10.017693881419682
Li 15.603616766692518 15.008859198663927 9.573452723330044
Li 9.46120762573227 15.794723883884446 8.2432009598694
Li 12.225773225589805 13.50912905483633 12.658136923168431
Li 9.654033827661555 11.703406232269234 13.64213466396436
Li 15.359601860424418 11.338679456898745 14.394391672123474
Li 14.020533388724282 6.262098237745581 12.344637903003415
Li 6.511397300863618 8.331611069413139 10.403097219090563
Li 10.89749426071417 9.753387070135481 15.99334418792666
Li 8.514030803481566 14.346977982951502 15.187280958441141
Li 9.166691928479137 9.06505989674913 10.617516044546191
Li 13.319954109646613 8.12861775449178 7.182870952780726
Li 6.027866388133137 11.612202803157212 10.191483384795413
Li 13.322162331236358 10.790945203436133 8.810499319176122
Li 15.35179784180753 13.603877441555223 12.301763029108434
Li 8.300083528051758 6.91006560202087 12.428938164280058
Li 13.815002774887008 8.641531044083079 14.903961020100216
Li 10.228308501226916 9.004213515060952 13.247806000658866
Li 11.32313961421712 6.805209662043892 14.524168450845277
Li 12.642880294517655 15.798923967556165 8.673129288759693
Li 10.570359081668864 16.357338489793882 11.055555053656272
Li 7.613349319670478 14.640165679032036 10.459405205412446
Li 13.499003564495874 11.288042947974706 16.817129873347977
Li 9.519170825835838 14.201752075686699 12.576096801145743
Li 14.356121721367746 13.158865948336597 7.356149847135299
Li 11.059119023999443 12.949927326522234 15.792418281799206
Li 11.677462291309798 8.49667867472187 9.56348429942568
Li 14.706306866317068 8.411564828262158 9.842185261109202
Li 11.333656121307099 11.114818685424009 11.213816592065585
Li 13.769433336446626 13.946098521801128 14.911602316606892
Li 8.064529485910667 11.28120279593383 15.723972582535431
