54
Energy = -84.77024711 eV
Li 18.281294242502643 12.293532612507443 14.8050049296997
Li 17.315042167678843 15.471843254142751 14.798391079925159
Li 15.157605606883925 18.240182864399376 14.006252598727514
Li 18.83973732700036 14.03119629093561 12.26470602547938
Li 15.65158296961485 13.246268227703473 15.997852537949441
Li 14.957520994633974 14.311780657138268 18.74117517030155
Li 14.618150095591213 16.3132597054221 16.488614122211853
Li 17.4954177480679 11.007025235311305 11.926020888188441
Li 15.576213687644454 10.763166583938991 14.360480413777818
Li 16.319717796076677 16.018939674936693 11.858648458605678
Li 16.335527681524464 13.305671262882857 13.06439121981117
Li 14.49405037967059 11.309913899115543 18.075058563210472
Li 14.524865561423313 15.28166389330675 14.051410669146117
Li 12.873007995509594 17.0842894939837 13.033942892065157
Li 12.12412971192094 15.952591992217785 18.164858619163088
Li 15.864750265569107 10.366206559305432 9.454136269127625
Li 14.27168290257772 18.008768147786196 10.908820795595174
Li 16.5517345573179 13.545722078061624 10.093919505276777
Li 12.966471956133248 13.336227335726246 16.85648828821138
Li 14.813580275815072 9.33310513579903 11.937014987414083
Li 11.779124189874004 15.424060070778049 15.33152736608198
Li 12.21821211483272 13.111402144498582 19.472885494304577
Li 14.405464561999429 12.053733986729016 11.357427492716777
Li 13.422120308186255 12.857633467026107 13.884722452485256
Li 14.367319207314301 15.636464443664467 8.79974522836728
Li 15.893093449164715 7.3916841327955485 10.241662892022626
Li 12.242970413846008 19.671097554005986 12.667271491260028
Li 13.857470595344177 8.789009617831113 8.023523994214578
Li 12.33991067675424 18.25039155773961 15.521133595232865
Li 13.784926156463206 14.781281339110658 11.27791587171604
Li 10.09913972574393 17.263141031578957 13.295445628994917
Li 9.642212656986658 16.865268354559515 16.37562378019334
Li 10.005678941268908 13.917645823949892 17.257874728747296
Li 12.391044908094885 10.253290133555009 12.877218856181305
Li 11.363043990465448 14.673160752541234 12.735305658374658
Li 12.850296000247926 7.694109426578904 10.678184042023878
Li 14.163341888841064 12.530037186922705 8.454805717152215
Li 10.845217000208955 12.326957627535933 14.82788874882559
Li 11.546368313831584 16.693197345844283 10.503474507589122
Li 13.06149103401116 10.370226896816012 15.59464384105065
Li 11.39319277057685 12.333361505943614 11.507424980507283
Li 8.297272299222085 11.648982814789923 15.81195398039161
Li 10.962800911671005 11.07640793021071 17.460601813529852
Li 8.93584812614257 14.474636751086724 14.3394649416005
Li 13.046566770827484 7.732926303853411 13.80839369515551
Li 12.495923025360014 10.426090846658763 9.761023636470284
Li 9.213050180419714 14.399032432017483 11.01435667760777
Li 11.687115464253905 13.84686780960669 9.155034966215586
Li 8.996877012221528 11.704618059782735 12.730830711689531
Li 11.800953693377688 11.214466107525434 7.193204040909708
Li 10.320682151200021 9.085580510045789 11.5235013762791
Li 10.270859261903684 9.464477131692801 14.67651701626691
Li 9.695264137880292 11.393973115581009 9.481098838997628
Li 10.81168454867207 8.556802379864129 8.482710407941623
