53
Energy = -83.3513477 eV
Li 16.282282049449062 9.284205853742515 10.781954603465717
Li 14.77616129275707 11.408339232830121 8.469989477393437
Li 12.501162913000298 12.122467931103563 6.056942209587
Li 17.063696680607634 10.192403370174446 13.924776109354926
Li 17.040662382858095 12.270221104546922 11.290612986841987
Li 11.531065801037226 10.881248725188307 8.736348769654045
Li 14.783864774205226 14.104953972367484 6.581785707481398
Li 14.927987010741713 10.983384420645606 12.4397549092936
Li 13.129476647967568 9.330544675123386 10.764666398822968
Li 17.665305651009483 15.226242387896084 12.087851826887142
Li 11.89254452540463 9.000807191206619 16.076705113285687
Li 14.513118969597395 8.232517967147947 13.169613325471081
Li 15.449625339200246 14.264511058717714 9.694492139606691
Li 10.243108161512424 8.364985322926557 10.170228334877631
Li 13.39411736878985 12.258567274405397 10.647676325450773
Li 11.254218293963545 8.021212666417826 13.201830459510784
Li 17.18181192895308 13.284379678267918 14.499630242679041
Li 16.657952182757356 11.47592646538321 17.089514062501372
Li 9.77312561517769 13.168617471163184 7.616910351387449
Li 11.864634026090872 15.148287268942418 6.091122830279969
Li 12.674771621350057 13.693675467728154 8.248949551794174
Li 14.766548900903286 12.07345264486552 15.105918970727688
Li 15.13643664222229 14.061775294795058 12.654119573657463
Li 10.752225767651574 10.607131458471885 11.814835634923693
Li 15.142551257800028 16.835999633150447 11.388602701129237
Li 13.67740157347866 16.472044940453085 8.391009181925506
Li 15.062328796916368 14.138241133004357 17.296287374739034
Li 8.62375133899292 11.08380587266082 10.002525672624984
Li 12.66418076465724 10.455305603023069 13.858613419831615
Li 15.702451839387278 15.983639150782539 14.64841857863982
Li 8.31619474014092 8.835038298324598 12.690119882593848
Li 10.628155513080788 15.782697813428523 8.978947052633172
Li 12.86543295630325 15.168686405511805 10.831725460850475
Li 12.209189941770441 17.891540896055822 10.801101917734824
Li 10.684049592746186 13.197496982502608 10.376615386923387
Li 14.832513075925416 9.42516671255275 15.855874640334408
Li 9.075066656627774 7.827711828665132 15.642750234643454
Li 13.282783887132872 14.386679151729455 15.323213703147104
Li 8.137591348745714 14.086387228335687 10.53720356488673
Li 12.489684745730754 13.17655693556837 13.00093898298713
Li 13.39288722333678 11.457021442080757 17.575498957524033
Li 11.621704668045492 14.02944657279247 17.807318033023577
Li 7.517414085249493 11.72315336157522 12.862084506903601
Li 10.346136825326456 15.67554135271614 12.070436284473294
Li 12.931360823071469 16.420566422769944 13.43405907510012
Li 10.63496537056749 15.19547719476535 15.136994212129594
Li 9.641591233176658 10.339870436168747 14.600238182229653
Li 13.074374052243524 16.743504568888312 16.612634205660772
Li 9.823980551265635 10.649798909780008 17.5283929976992
Li 9.852348847387344 13.031173343987756 13.181156779591813
Li 11.454246697661588 12.233053699398532 15.663300502325633
Li 8.621535595547776 12.879884192065852 15.860291553046293
Li 7.106389382268117 10.079090748988675 15.512207479417448
