5
Energy = -2.07114682 eV
Li 12.192888825500086 11.80761364372409 17.44996432993659
Li 14.582572269120872 11.53646741332116 7.436668269130532
Li 12.448121671263007 14.512943783287696 15.878959953163804
Li 11.817502524292491 12.142401130850741 5.346371153372111
Li 10.867517955264423 12.114036669737756 14.626738930541917
