54
Energy = -85.34361791 eV
Li 10.909920816169654 8.174268430562273 13.676586575120764
Li 9.205010095335924 9.147689938070442 16.205887471111495
Li 12.773240269994126 8.29078416288061 11.117982580848324
Li 9.501293710926452 8.162532908195802 10.692037908231915
Li 13.072853895017586 10.14273777543768 13.385457612398527
Li 8.205005927434946 9.790846875837035 13.107968653679263
Li 12.44291841264782 9.431900211448905 16.191494178345444
Li 14.123060621571447 7.787058971032986 14.023974457565522
Li 11.28465823407753 10.045436976230251 8.852036631628623
Li 15.346025674184004 10.582103537209207 15.27994105674792
Li 14.492869223283034 9.570871945309902 8.674547696082971
Li 10.701952824980939 10.366547786105693 11.65048003183684
Li 14.005826126989925 11.872770678602441 17.96835649024423
Li 17.84393322429021 15.108514876968224 16.390456091832082
Li 10.468823426523906 10.95937318662466 14.618237337940402
Li 17.203940243400325 12.178301876868186 17.366614731693392
Li 15.576651442032102 9.862313546866602 11.880095628294214
Li 13.320847101425596 11.083887052520886 10.593016734160859
Li 10.82111828500001 12.980466772016408 10.056461258425983
Li 17.514859918109224 12.774206870656295 14.368818968982188
Li 8.355006881173539 11.139012389473669 10.212282541328243
Li 12.918227906211927 12.306342533782997 15.453983685913945
Li 7.9552141660795685 11.973609128070127 15.324945709721728
Li 10.65302722158893 11.874306928667078 17.298501584339412
Li 18.074910486192366 11.999462878288474 11.521565849473022
Li 13.231153767464473 12.612074527649487 8.152843788348868
Li 14.933589043295472 12.496905660317324 13.05271920740273
Li 9.129783612791703 12.66664022617481 12.667424712177086
Li 18.25390213103864 14.498847407633013 9.546504741725203
Li 6.4592241117900695 12.430959200757204 12.343019157388564
Li 15.380973726673261 13.669758088156058 16.03411191084446
Li 16.450554091723305 14.250553253699168 11.541370640959236
Li 15.845711421419269 12.276882959035053 9.571279222512796
Li 13.53531627236542 14.873027712180168 14.117794512911596
Li 13.533776424445973 13.841679663310693 10.80600524343259
Li 15.595825125505872 14.638005638252935 18.548348177215207
Li 12.006720326287766 12.676909209144902 12.799765348479239
Li 12.698358413720431 14.626346645697533 17.13097959535035
Li 8.458108327384851 14.73113896343567 10.933472957758884
Li 18.94495264579287 14.867588820727129 12.693251103539666
Li 14.169456172850936 16.24157053094398 11.80680908213897
Li 10.481072554969568 14.148125431566136 15.023189205168137
Li 11.077392490383058 15.25777408177895 12.339868297597056
Li 7.731458242876088 14.708230438353318 13.910483455633477
Li 16.35256577644498 15.658933429732446 13.939446493296376
Li 17.008921726104766 17.020296149786574 11.264651992028618
Li 14.870827815379197 16.59575497201302 16.257953956518893
Li 15.237149132893599 15.40167583373766 9.094214873690621
Li 14.831175375353649 18.250228939121236 13.490964565223228
Li 11.96430663296174 17.00370420896175 14.778422445419535
Li 12.013379334693507 18.077752595285883 11.972801443152855
Li 11.998727988601436 15.988314781630109 9.658746114954841
Li 9.294839813624266 17.15438411123939 13.067346788793373
Li 14.439941835807591 18.327526790383438 10.114669327191946
