5
Energy = -4.97045684 eV
Li 8.681161440623994 8.31803854506766 10.760628728866438
Li 8.464662998119222 7.197288900177961 7.999276365003675
Li 6.888907953117589 9.489181165119328 8.956638042713895
Li 10.760467735126664 8.783260502791265 8.926250180593396
Li 8.980255066853562 10.028689307180674 7.155005471041311
