52
Energy = -81.43385534 eV
Li 16.830085184431457 11.465207915470168 9.995283289674957
Li 15.170534881375824 10.276851460449272 7.558630865378868
Li 15.45105589151946 9.059080594155263 10.596612620365482
Li 15.563121141514012 13.681648242517788 8.652205144034777
Li 13.14839680337991 12.70507382116253 6.8619009613480895
Li 17.3381443098804 13.998604838759494 11.814791705076297
Li 16.369140782073927 11.210136491550982 13.025228576221537
Li 13.149894511705352 8.24574861508255 9.129020558100796
Li 15.781235496410098 8.149076646822285 13.365123664747298
Li 14.800243256566487 13.066504745720344 11.479964233110728
Li 16.172344132132817 13.150550404156425 15.540146603917947
Li 13.679566395452115 11.22871346301575 9.554288602547054
Li 11.858260699917745 9.982553164604337 7.309559002517279
Li 13.116897749399659 7.216634006479196 11.871477941400082
Li 13.438505731019914 15.140856586672006 15.765420902762848
Li 10.12070281016142 12.127993389373511 6.073999065834969
Li 12.885211914035706 14.202695158504206 9.578318705628183
Li 10.953678146057152 14.939669063669122 7.429833863853283
Li 15.170833033608085 15.143059096399831 13.555790643198282
Li 10.957022768233154 12.280240530004402 8.676185300897005
Li 13.916689953007735 12.55234595352555 14.15920282205502
Li 13.593268688220615 9.939168451255368 12.650092110186081
Li 15.024987659607051 10.172833923952487 15.576381452033703
Li 14.87737402704339 15.972129432782808 10.84470695598127
Li 11.18699307352134 9.846512460935514 10.591614929225187
Li 13.236804480644286 7.694416076938213 14.921192622545718
Li 12.906276938046963 9.244995848093952 17.710445089641187
Li 10.246136918373722 7.355208701271825 10.048792697731146
Li 10.677707752227281 8.336531141211479 13.142637795363157
Li 12.068096802533868 16.92001812945627 10.22358786680576
Li 12.11259742847961 10.254249267447076 15.194080859176331
Li 12.351536075879402 15.026873489265256 12.602080574535467
Li 11.935133660588304 12.362585026170727 11.8422077756513
Li 13.011264208583228 17.477271296840147 13.34318628046587
Li 9.061660184732434 10.04827635340039 8.516226023466595
Li 8.311857154472412 13.229237801060135 8.296973722313192
Li 10.459684619251194 8.232072370932913 16.139030458585413
Li 13.445988288841983 12.305252848644473 17.097294092107507
Li 10.484321937891215 15.930575413948063 15.041500860377056
Li 10.162390035470137 14.673215460002565 10.277635673686904
Li 11.397593039870152 13.191988670537366 15.0381289130414
Li 10.010928251954283 11.151311765630249 13.512456244473388
Li 10.43562354141153 11.156416517288784 17.16315136753744
Li 8.297306261977724 9.397582505887243 11.715348958743714
Li 9.495640376943866 14.046208363308834 12.979077621651518
Li 9.7778489501258 16.840792666208866 12.26226790018225
Li 9.024805181110501 12.059602967267832 10.828060194354833
Li 8.234722269209993 9.972162422655384 15.029902004236545
Li 7.424681787967679 14.742139149257776 11.019479886724405
Li 8.603315078072898 13.140422115360366 15.646033981873469
Li 7.4917276986840795 15.49611539338674 14.027458377604248
Li 7.17811247200995 12.309357992393606 13.06050831936096
