51
Energy = -79.98923613 eV
Li 16.77619972756061 8.936891429032642 10.552592377166322
Li 14.165774188675911 7.838748845396014 11.738730455953496
Li 16.154927026650473 11.75004463271984 9.251038963067295
Li 17.461570414118253 11.6459019656382 12.136504668888447
Li 13.725554094562293 9.44440322821494 9.096553464374688
Li 17.666961576390356 14.364990510918167 10.298815710517594
Li 13.683493138073965 7.537138434717826 14.835796653109961
Li 14.723720671591705 10.590096974547977 11.525387641429253
Li 16.18608778727323 9.283847323502835 13.666834793323149
Li 10.386627935637968 8.36823531680083 9.541330555386214
Li 13.956685610507087 12.090761643112657 7.055623693814152
Li 15.32354061327211 13.568910129971655 11.340793154530203
Li 11.349103780222112 7.659570471522668 12.53031176306578
Li 17.455155424167266 11.906847490964338 15.330662680972637
Li 11.20910839420551 11.11878801355216 8.159141948652332
Li 14.839828330060252 14.668252021657556 8.703232324425837
Li 14.95738928654125 10.41663393780138 16.158046544677028
Li 17.07262285444942 14.458455276333874 13.437895424133693
Li 15.392410030188934 16.455169103428812 11.201830060949877
Li 12.94427305678306 9.870209745588152 13.763529136296132
Li 12.37809156290913 9.377686789871927 16.911575224836106
Li 13.262385123855198 12.308681703444027 9.677731598978566
Li 15.12029235978787 12.203338031605675 13.935467731400237
Li 8.621222646381838 11.091468296272177 9.675578546569591
Li 11.83572371045975 14.28386038451105 8.041370145006193
Li 12.703081841383804 14.994144700645219 10.834571778299683
Li 13.197160690332884 12.019971993921358 18.252063392132527
Li 11.507419361937327 10.273717739797082 11.135867430878374
Li 14.70478695683698 13.900297171097858 16.163587566619178
Li 12.682178008196152 12.615854506322625 12.50380829456701
Li 14.185628975805875 15.120351936262669 13.47754383092198
Li 13.007792331667387 17.22972264951225 9.241378699401842
Li 10.304104055805093 16.20691500522199 9.818562294381648
Li 10.421588388803933 13.039100020335628 10.506818718314083
Li 8.908695368636192 9.504999046131578 12.206830714497688
Li 10.324610248565838 9.157476030510741 14.871181574232766
Li 11.524295326341994 14.443353362338135 17.0962766516334
Li 10.259173056164991 11.708260182107015 13.688220381158953
Li 11.902016571468083 17.1370641901015 12.433179220036855
Li 9.718142121387523 14.932649635588536 12.43313536232921
Li 10.19663637312519 11.535144605370684 16.933844427030998
Li 12.544301543016024 12.04607238000407 15.572833443673217
Li 12.934379540312381 16.779948705739614 15.587927030240389
Li 11.69576412191398 14.54639012464823 14.340920553831696
Li 8.697851491240321 17.448816605473784 11.984163135399484
Li 7.807000156411973 14.580638635649496 10.252912055759035
Li 7.909731868918302 12.488868540693488 12.35587846556718
Li 7.736055976510844 10.889537730672009 14.901453873779179
Li 9.779803369423922 16.653297479191206 14.835095411971505
Li 8.970803382386778 13.71171165905061 15.212621436527668
Li 7.15810718449343 15.266218143763608 13.350302432831272
