53
Energy = -83.08793806 eV
Li 17.80077135705788 16.14594385036931 14.132928494427597
Li 19.167544396942613 15.363197419920716 11.335927645767875
Li 19.29912113704957 13.26298929430888 14.08819308650897
Li 16.99830039066579 13.543967780666886 15.790354865243328
Li 16.421335534135846 16.39971201728513 11.419651639128404
Li 19.10054367738583 12.132247189580388 11.257736321042824
Li 18.180424600634357 10.758055189855897 16.17995253305559
Li 17.10949394648295 13.736604279037374 12.358665316119955
Li 15.354649394858574 14.987374756427096 13.978261613270828
Li 17.076654331858744 14.062528271251951 9.527898168690202
Li 15.10302500643429 11.13355736440269 16.216158854489034
Li 16.854285555299462 11.338788422681686 13.749444692953805
Li 15.283541951523715 16.562071597932558 16.488036812035173
Li 14.860944460227412 17.911961422477383 13.673471744304631
Li 16.28205833836103 11.225393034124972 10.653632995017249
Li 14.719987778147692 12.557416011764321 8.158103185969253
Li 14.092101248474107 12.597031959471373 13.689462455184078
Li 17.096553987093202 17.078773058753555 8.835887797648892
Li 12.865498577849555 8.578737178363186 17.08410074437054
Li 14.244600394007568 13.852959245671578 16.48746161135153
Li 14.491133155967335 13.210433725064627 11.003315571971514
Li 13.770381355898724 15.834178508645188 11.842478228817123
Li 15.691934773801115 8.726857652422813 15.089834468795777
Li 12.464702141696892 18.239871160407027 16.008528452326047
Li 12.994740402465242 15.909694515115753 14.818987814676658
Li 14.490936576994294 15.538399524177754 9.048748203127342
Li 14.319097667394372 18.264383934869034 10.428130523618972
Li 14.333370903365608 9.933967622410568 12.615554587340954
Li 13.096346953551908 7.434550278289749 14.128244632585782
Li 11.821151144396946 13.323679933567394 15.070451372602337
Li 12.718987084498162 10.084819090480982 14.873761404166611
Li 12.276771062820412 11.796887683012068 17.38347828047583
Li 11.52403788349652 14.623125023312785 12.529841998571156
Li 9.867592329624456 10.192373002432674 17.173779496812518
Li 10.17708349495296 15.98311022847136 15.051000247281577
Li 10.189993344773985 8.279229831929499 14.867600843956113
Li 12.144492113630744 13.391410554218183 9.522376793299802
Li 11.609099191295343 11.819856828900168 12.127577212831515
Li 11.818862384207735 17.707103207039893 12.89679327674595
Li 11.961245061897792 15.31410170149024 17.469562089111616
Li 13.272555238630959 10.626998037471436 10.029309751023316
Li 11.364014682398734 9.084113418452587 12.186386236534965
Li 9.11974270291316 13.468140002085516 13.676941837387995
Li 11.421975051302685 16.23255811205043 10.13986815056205
Li 9.494405042338945 13.309768606805187 16.672847270992193
Li 10.236049532783003 11.084987630046848 14.62995714526383
Li 8.809218484534718 15.98185934352506 12.348201786921491
Li 9.403168312944215 13.471642834278894 10.744095625843993
Li 7.235967886584963 14.893303486468215 15.011216708805179
Li 10.358950893695676 10.845824140223105 9.599525746681023
Li 8.724506914607936 10.789437041871684 12.274600762117203
Li 7.47598360073499 11.539540419059938 15.052062607819986
Li 6.760316843399664 13.379003303373032 12.33822613096517
