6
Energy = -6.555988 eV
Li 6.35875085393631 8.13003377998741 10.070762957269421
Li 9.130591941954366 7.170752339924365 9.37222644896461
Li 7.817951674081208 9.22969531799959 7.841675519000442
Li 10.387840967243045 8.111896858800852 6.921602960436316
Li 10.344838179631735 10.574445374316587 8.232838483631035
Li 8.835792916979678 9.66240561655851 10.594259287240977
