6
Energy = -6.71545476 eV
Li 9.480863195169492 8.967857430016979 10.775800122715223
Li 10.941897010583741 10.789336988479164 9.044716120580187
Li 8.215264716786605 9.922067370125228 8.256493962768554
Li 11.270451512595805 10.940807288208035 11.907868687226994
Li 8.645407819532803 11.718782820355788 10.524898456617265
Li 12.431532736481119 8.653592489530734 10.484926762366984
