6
Energy = -6.06093599 eV
Li 7.683178908126978 10.062293991806305 11.393677086919848
Li 7.519689285140105 11.509284302035033 8.878264496745969
Li 9.132486932497807 8.078218334980123 10.016173754114115
Li 11.520556545353047 8.175144234825538 8.359231954830694
Li 9.017974877385178 9.462784229817608 7.6541105351533485
Li 8.975823584954773 6.561985039993539 7.548252305694173
