6
Energy = -6.55152291 eV
Li 6.698363183473658 7.473904717194621 9.871718630862574
Li 7.213437885869588 8.714543722476778 7.266837429227111
Li 9.458551924957662 6.7288083631787075 10.091368341754535
Li 9.842807343180004 7.940736837997528 7.460645696061909
Li 8.74282821899706 9.564515262342317 9.588088455666108
Li 9.269125954731415 10.802605608019798 6.946455957637028
