6
Energy = -6.71471689 eV
Li 9.912433691214739 10.333615684114388 8.404092567431517
Li 8.23026932567762 8.359150510566597 6.961589433310813
Li 9.47335685426681 10.28512521944017 11.248387958082349
Li 7.181561422827011 9.950565244590694 9.19082861456777
Li 11.829314343000807 8.90656525936878 10.153570576381215
Li 9.086795018625335 7.866026728847273 9.746921790228734
