6
Energy = -6.71459333 eV
Li 9.82334124007797 10.652320222799021 9.792157759447136
Li 10.905693444075144 8.101478364716982 8.487782945641936
Li 8.647637075451886 6.442220893763613 7.638512909923484
Li 8.529001435520202 9.413739517456456 7.512326425010384
Li 8.517811535164558 8.095942769481741 10.108518596442106
Li 6.896271708823725 10.56685812270795 9.717194559552228
