6
Energy = -6.7143228 eV
Li 10.840144103617178 9.481353000191376 9.339065839817428
Li 9.744473482745969 8.109491080668844 11.723802501340531
Li 9.722468408134382 8.303217879654476 6.875653764011307
Li 8.064573718087965 8.532936874960724 9.319417580456523
Li 8.81453369313131 10.905595139678057 7.862147216010819
Li 8.836203220057508 10.786029655065157 10.943635568415994
