6
Energy = -5.34927338 eV
Li 12.775836520166163 8.431493704769249 16.091038849353236
Li 12.953321241397425 10.308551981752675 13.677175225442195
Li 13.842781661604402 12.014376415405854 11.555388567517602
Li 11.481678515824546 12.73156347606313 12.932308472406504
Li 12.691362001784775 14.56120459985304 11.004766760180686
Li 11.76173676782076 17.42861928376502 10.405668551750479
