6
Energy = -3.6445498 eV
Li 10.841921940377393 7.1570512152405135 9.165604125369308
Li 10.49823324040144 9.996880494189675 10.406230231185438
Li 9.129356478275675 9.139581615045465 8.061498101501057
Li 7.680348301236355 11.038171435586056 9.612768344445104
Li 8.239855623937308 6.47473974583858 7.560252207284932
Li 6.289941811349895 8.873232889677523 7.873304385792098
