6
Energy = -6.13672738 eV
Li 10.895955730868003 10.139011534510011 8.462385957851604
Li 10.52851886550109 7.335532152821646 7.838071161313896
Li 9.212978351988193 9.923576049533345 10.830950752057488
Li 8.050311899201192 7.373422090804056 6.227771456551331
Li 8.062865071291887 8.143974393569897 9.075317514957762
Li 6.336662678506865 10.171776376118528 10.652795754625407
