6
Energy = -6.68132061 eV
Li 6.580135202924993 8.315582295034254 9.317831679345884
Li 9.310623305001103 7.922209358508488 10.035625624912631
Li 8.485315289420727 6.910733256563252 7.5017767984656825
Li 8.379988358514536 9.754939473350843 7.6428207866559195
Li 9.18701540556574 10.766228548819749 10.183580915145606
Li 11.112977090411036 9.386361719561673 8.374418847312413
