6
Energy = -4.71186253 eV
Li 9.545796219443833 13.98146871660623 8.955103517067146
Li 10.727395529266179 6.532196425248006 11.78083494751164
Li 11.970754977434314 9.244795776464425 11.769626912747084
Li 9.67364395571816 8.795726479386717 10.088397414655926
Li 10.841195911309429 11.610759095559384 10.252284973798071
Li 8.591032593968196 11.18487269387564 8.503571421360677
