7
Energy = -8.31795937 eV
Li 9.381718310786097 10.500450771723644 8.08715217175034
Li 7.588610281511035 11.648552764130711 10.17274546902478
Li 10.58289955078335 11.7493984309418 10.506410359008314
Li 11.73520716549055 9.24845427163904 9.354106728598795
Li 9.219847032452419 9.289322059109763 10.650225278713059
Li 9.482438189149226 7.5179433687910455 8.369477039187794
Li 11.567412277604053 9.53963225090263 12.33563178815792
