7
Energy = -7.33287101 eV
Li 11.367960104510841 9.92181599465928 8.230021755840937
Li 9.459805551652929 11.970951588309653 8.670737097834309
Li 12.62686101825775 8.675947129497485 10.429856737886757
Li 10.780664201542177 10.783059413422507 10.863135029405267
Li 12.010136412702847 9.514620436248581 13.074422107771559
Li 8.904831102742483 12.86328219769453 11.30088565697275
Li 10.196075897086562 11.656791184893796 13.504023488398012
