7
Energy = -7.73960457 eV
Li 10.65462929247067 10.486102058916261 10.698722083521702
Li 11.264781090936077 11.793876284067016 13.319605160477126
Li 13.432149331218103 11.468465473654573 11.37497355250987
Li 13.29540798315468 13.803334812854503 12.965077464718483
Li 14.082445450832562 11.27334637646726 14.209684553213481
Li 11.155316912721785 13.27978949866105 10.799357272015566
Li 8.814997738316615 12.255724920258244 9.239209719857572
