7
Energy = -6.98103351 eV
Li 8.647927400884646 11.090386220133011 13.938658312679177
Li 13.229861424157 10.5216460260974 10.769333938321655
Li 10.843207490380893 11.485831413618186 12.094696410817487
Li 8.634642141877789 9.634568560580517 11.605319539772088
Li 14.401114136908946 12.957542473086768 10.329486497067183
Li 10.693763348038287 9.990812167236756 9.761293266323161
Li 11.803991972716263 12.534255105567267 9.57445925875167
