7
Energy = -7.84315324 eV
Li 8.185784070576009 8.454791853574752 5.822173365556993
Li 9.41146517435352 7.127903342984445 8.156800304980298
Li 9.747132751901072 9.891950146657873 8.246478654970858
Li 7.203788138350856 8.92719109103071 8.616216567155961
Li 8.943107517552964 8.208636769157211 10.915393688810106
Li 8.599828055599527 10.96392942696541 10.751215849278141
Li 11.251753409046556 9.768456487010098 10.834580686628149
