7
Energy = -8.47845166 eV
Li 10.870103148629534 12.177752672581477 10.473995593697353
Li 10.769582768309263 9.472809926334811 11.16002662322295
Li 8.28988379512932 11.039329917822519 11.257755448611123
Li 13.149040358307197 11.001879501702968 11.916198370387901
Li 12.59623125795553 10.300083851228715 9.024383438188568
Li 9.580593596304567 10.299610759897782 8.618002684233382
Li 10.494344610027836 11.458312905095205 13.299417376322081
