7
Energy = -7.52057131 eV
Li 11.473815184488169 9.900768967822758 10.5355732607411
Li 9.433190587132525 7.793675434063479 10.968580716838343
Li 8.617602038227256 10.823242933719081 10.324513349099028
Li 9.70714902497486 9.067539658817925 8.494216927210852
Li 7.817202420750166 7.040754784614151 8.639028770627245
Li 7.174484242524168 10.06770733222618 7.871305061687523
Li 8.635816755246312 8.165571142079376 6.026042167139498
