8
Energy = -9.57805085 eV
Li 11.797835061848927 8.861479203752463 8.331780494487703
Li 10.256680554383427 9.781092835635302 10.631625356002084
Li 8.920898453312484 8.411912586776861 8.581150868279176
Li 7.477803780827161 10.620331538015595 9.776127291953149
Li 8.030509123340819 8.016085899476767 11.341691649399321
Li 9.714804559813432 11.1095005925381 7.968085156688956
Li 10.83386165578617 6.988612724766125 10.569018618565911
Li 7.109580551605835 10.30491724950073 6.892425009832503
