8
Energy = -9.43556102 eV
Li 10.402367957060802 8.967508032007723 8.714953606505377
Li 10.281477629003447 7.445184088289982 11.245000832079835
Li 12.83276321364634 8.79743020633425 10.26646506109648
Li 7.949834743276061 9.19549033926122 10.357942074138078
Li 12.065394385082415 11.386104676590332 8.863592818025326
Li 6.0435121651533565 11.400017997381838 9.522930089611677
Li 10.579980852406722 10.378220210260572 11.208126525687446
Li 9.032379022277995 11.617754417781223 9.008698960762926
