8
Energy = -8.82972159 eV
Li 9.842474947788265 6.961272510547411 10.288847049521348
Li 10.76292930321211 9.316970961856722 11.5152985541873
Li 11.400927913879194 9.059609966355632 8.71716536955685
Li 8.896462037722712 8.065698912507932 7.9446505691849305
Li 11.739291524513124 11.521601691394991 9.878798183925094
Li 8.643823463337073 11.084388181142636 11.873311461545384
Li 8.980341233647344 10.524334367830521 9.139948189897169
Li 9.475638953050485 13.204547369879796 10.217625277081083
