8
Energy = -9.51018453 eV
Li 10.325149457128811 6.2021251039835255 9.202827923649966
Li 8.344893697617495 8.3260928827716 8.727540841491285
Li 10.080117789355034 11.127487765313127 10.951058944848311
Li 9.545015343465668 8.253899723986338 11.176027582908826
Li 7.208575812187556 10.189209011700353 10.808823059465166
Li 8.903043981695939 11.195053317629368 8.489025095163315
Li 11.094436622559083 9.29582451840617 8.920257583165512
Li 11.546207574507434 12.457747954726539 8.77187924782478
