8
Energy = -9.41362893 eV
Li 13.655516635137769 10.46289860346239 10.49624234585192
Li 10.963416641047493 11.394483564231884 9.86854784151327
Li 8.932930119487017 10.397837368692029 8.066450652602592
Li 11.675103952076064 8.955296723836755 8.697092462628591
Li 11.159271301103242 9.870675980239584 12.204271293167182
Li 8.454659515591409 11.242222023725107 11.29947815255418
Li 9.28389613196804 8.770326732498397 10.304878799064205
Li 6.50365515099981 9.534708450724843 9.691487900028763
