8
Energy = -9.51035552 eV
Li 6.46788370341079 11.142292958287959 9.853708572411893
Li 11.443022270026043 9.940569235782263 8.810708570379205
Li 7.757498102136837 8.523325354550213 9.494157308671518
Li 10.4921714579878 7.827727577292369 10.269153032975769
Li 9.430305775024408 10.495916139193717 10.879707655426413
Li 8.720841834418705 10.628176075087554 8.03036211009462
Li 9.774450616121555 7.868289370254688 7.3288551677623195
Li 12.438315302967773 9.63504264725097 11.557434871439588
