8
Energy = -3.25647986 eV
Li 8.102952568671212 11.206572950036534 12.290516548241213
Li 12.001113762152759 9.677519476799517 9.81605006748871
Li 9.239293687749834 9.631454501120466 10.246388575208545
Li 12.435403591837973 13.283191931051821 12.930167382998702
Li 13.579291806858645 11.467268340319594 11.14371189210012
Li 9.724054479445869 13.026585657198991 13.663590162847782
Li 10.894482807802303 11.12381299492021 11.966373264749798
Li 14.13436255021343 10.934117049633905 8.406610948330329
