8
Energy = -8.44272679 eV
Li 8.28165882089253 13.031815218603864 11.205277616846033
Li 9.677580574087573 11.102328652710042 9.91427150865509
Li 11.029404935783013 13.414471446161135 10.820902560795405
Li 10.211664710156901 11.599885991522852 12.644798086865396
Li 12.358145507612184 10.796284792597652 10.804025389453404
Li 12.988943577365283 12.612370633402563 12.885718259196759
Li 14.776410650822305 10.509628512484712 12.219909902473796
Li 15.360848488212056 12.268805774921324 14.294365762546587
