9
Energy = -10.86888871 eV
Li 11.298923349632336 7.223883055807969 7.975250382123484
Li 9.627755558160853 9.568020122870566 6.757311827962422
Li 8.228165306742854 7.065125147454043 8.105905913890552
Li 6.986681860170998 8.274714109680932 5.667172766478583
Li 9.953175726393603 8.659052853637196 12.13506023158072
Li 8.87255355882623 11.254880388425304 10.274131022063578
Li 7.3466790394032895 8.368053138897864 10.722675756164891
Li 7.182476963425785 9.86016103405326 8.175669692872036
Li 9.711705313164218 8.934226825092592 9.394939082783333
