9
Energy = -11.08559803 eV
Li 9.032582255 10.998105468275265 6.3273520116393875
Li 9.032582255 7.067059041724734 6.3273520116393875
Li 9.032582255 7.5486048044980745 9.636054639017638
Li 9.032582255 10.516559705501926 9.636054639017638
Li 7.499734655603381 9.032582255 7.769236889663972
Li 10.565429854396621 9.032582255 7.769236889663972
Li 9.032582255 9.032582255 12.41996301605669
Li 11.484447516127087 9.032582255 10.703995100095716
Li 6.5807169938729135 9.032582255 10.703995100095716
