9
Energy = -5.13781819 eV
Li 10.619195490306238 9.77735966892455 9.662839414629262
Li 10.324276582382257 9.992707322910853 6.776546632275732
Li 9.651827370936747 12.436598921351342 8.613932235224118
Li 11.280480355363853 6.983680128375032 10.55678515429088
Li 8.484972945883534 11.089836177584884 11.176792841688686
Li 9.518083414474932 7.431280102766722 8.239090187963301
Li 8.540781802176264 8.061016285898043 10.787257567408332
Li 8.050680928541693 9.935970764667791 8.564952979235064
Li 6.594514514764067 7.356364032350622 8.68661639211434
