9
Energy = -11.06816001 eV
Li 11.000332991492588 13.24836314231554 15.683797547156583
Li 13.553469332887463 14.253738246156555 10.612113095233376
Li 14.078510713543094 12.756037241295507 15.028163034234623
Li 9.695300218920485 12.520282314312716 12.875691133097176
Li 11.927342857339397 11.765102713990837 10.826715221267873
Li 14.459764845905354 12.060171703498256 8.921687586723221
Li 12.253354170252114 13.633883204663395 13.125909317581383
Li 14.42814902331547 11.829389194796127 12.085428591784279
Li 12.066355175859318 11.025846064477486 13.759561479652337
