9
Energy = -9.91846125 eV
Li 9.87643795024753 10.884002438075472 8.22425988084248
Li 9.714363535023736 8.746774653463367 5.860884635762504
Li 7.374840912413127 9.629304568508072 7.847458579619592
Li 11.086675044393935 8.400495428238335 8.585965682817827
Li 7.672377999650128 11.459815531754268 10.387737991939048
Li 8.572440085493024 7.140124328841221 8.208454015305096
Li 10.01757039980844 9.860054443425557 10.95458495536139
Li 9.853711737352201 6.941852072902341 11.000102741656404
Li 7.472064348914277 8.578058548087379 10.571033529992194
