9
Energy = -10.21404492 eV
Li 8.229500795987658 6.8643116352140945 11.19917354671462
Li 10.11303046999594 8.677958549974914 10.25840535597257
Li 7.761122477367006 9.696120495299347 11.755740181697483
Li 9.921814248685008 6.1371719564263625 8.893732604759485
Li 8.831114967735186 11.058351792403005 9.273253016910527
Li 9.82894321637479 8.750115719624672 7.577418057993536
Li 11.5836789983288 10.964247895982018 8.258379145644138
Li 7.203161319736062 8.896989007522805 8.48906104483357
Li 8.725114938037914 11.152214379801533 6.492318477722044
