9
Energy = -9.96595244 eV
Li 7.560009522642464 7.49425417566817 7.482595260073235
Li 6.78386751072922 10.774071399544006 7.58326561681003
Li 7.08428524771075 9.050425115148965 10.093298480264277
Li 9.544649544845484 9.811308375900369 6.9705291095003
Li 9.735011781873204 8.066707160620346 9.321513036634697
Li 8.877962749590015 11.298945708425029 9.518573667777416
Li 9.713737362667601 9.278760033227442 11.70188452566012
Li 11.615643375842554 9.942142208085997 9.258217778523361
Li 12.260890155485752 7.4594430747669875 11.246179776143741
