17
Energy = -32.00974111 eV
Ag 11.177858348603836 6.986691618342365 10.239240201842472
Ag 12.277056551095171 11.187690473647654 8.6052157293027
Ag 10.214566243067766 9.241471057237382 8.826433918856178
Ag 12.707225366734555 9.203924029398728 10.77101265860371
Ag 9.50575625700842 6.680823532080339 8.016292278459415
Ag 9.458095135373055 11.958624531183412 8.58848199673787
Ag 13.421820658113026 12.022060253544987 11.118737840218243
Ag 11.387211900545502 13.72019311492197 9.80886321828452
Ag 8.37975278979396 7.7030490369181575 10.288622966361764
Ag 13.2198551873264 14.757820777232377 11.640522737291635
Ag 10.734711655990118 11.157267785383358 10.893166794073865
Ag 8.829410506745633 13.215298470730819 11.07929687765773
Ag 12.125161368235801 10.574431482122606 13.252860403976637
Ag 8.073863747227461 10.387619338995302 10.718158204645185
Ag 10.17557381776425 8.711614204478579 12.208213316088532
Ag 11.235379175784072 13.23933044823142 12.738201425291107
Ag 9.270536748127599 11.274227766507234 13.222910377379485
