33
Energy = -70.14698958 eV
Ag 13.415792851156194 11.921021304662743 8.821193055331301
Ag 11.738339082175042 10.332738171956747 7.238472361999046
Ag 10.8087486549498 12.944287008275209 8.006686035718598
Ag 14.076029247178004 9.207756095618818 8.431224683047814
Ag 9.108270455943883 11.28215461347177 6.534829613709487
Ag 9.765023098119716 14.540301077291398 10.14655290040333
Ag 15.056395868884763 10.541990785864915 10.63693462491161
Ag 12.582421257551932 14.47468035904436 9.464156233741317
Ag 9.708244569719463 8.540839812245084 6.55292232908861
Ag 11.855677437923633 7.59129848197696 8.043811738824484
Ag 14.005159670367295 12.987922017570119 11.43140460684668
Ag 7.96159529845258 12.823645496718683 8.708214680857784
Ag 11.227982434048515 12.278905912801664 10.99517386407305
Ag 9.542388976765313 10.608621407003088 9.20282314629885
Ag 11.855516505202578 14.846462785535094 12.105181440985342
Ag 13.88355489321495 8.027789910315724 11.258304559690293
Ag 12.738601936486605 12.899713993713636 13.918167172788841
Ag 10.006766289450576 13.344812754650443 13.512194713083643
Ag 8.21057240666278 12.673315810264894 11.52509936299705
Ag 11.905275774413077 9.592753348475595 10.237388108168965
Ag 13.305425472525293 10.451454952797171 12.759208678251149
Ag 7.3861234047499496 9.410431989321907 7.882012501483866
Ag 9.249623766451611 7.461720568837159 9.076613248862493
Ag 9.58714461474435 10.135396539828548 11.941494759653075
Ag 11.005572059959993 10.767257026544993 14.393754994601446
Ag 6.782231212686247 10.708490281764874 10.253156970827439
Ag 11.437100311459236 6.69498335151918 10.650879220898572
Ag 8.159625578755541 11.360405780839553 14.050681930659279
Ag 11.554189371560824 8.273374870570677 12.941256275708033
Ag 6.777140153998081 7.901288091984496 10.20604824311264
Ag 9.154459011563109 8.664710436453852 14.335726682529044
Ag 6.958706093244072 9.231384011365714 12.631823455058578
Ag 8.97630462742585 7.268346010042686 11.88825283891041
