47
Energy = -102.48073807 eV
Ag 7.415206989101112 15.937905796662506 10.082836696212297
Ag 8.224931121899182 12.931937395183606 8.288569323380527
Ag 6.30290033413808 13.415403662073574 10.410526293006853
Ag 9.629160772377961 15.57837766708091 8.437270090894858
Ag 7.57067240628796 14.790765822231034 12.64289060799663
Ag 9.72980384972255 16.49899066774357 11.612607228500151
Ag 7.922241972668167 11.16615214366236 10.56915061646221
Ag 11.159747054210298 13.254995938914606 8.272585760844093
Ag 9.241197153241238 13.806530271581325 10.64985342356588
Ag 6.58615376944228 12.130818491518728 12.882120970196919
Ag 10.035295026908285 10.740341276554513 8.736680810608611
Ag 11.772165937633318 15.159308201193724 10.274385366452995
Ag 8.123349376267223 13.329529839951036 14.894755084583643
Ag 7.792747926669643 9.599057942197565 12.980165684342087
Ag 9.515644212140584 11.774991985590225 12.975381867876292
Ag 13.836474529107868 13.495931113648036 9.296943139621899
Ag 12.91737153186584 10.978380167830844 8.557855815332905
Ag 10.613113754319484 14.301830398961835 13.137906308355877
Ag 11.485543502298595 12.12147364696767 10.906569476301383
Ag 14.46469169855337 15.951807286154859 10.694143391462818
Ag 10.15213046098527 9.562596025698411 11.272291686127506
Ag 8.926641395545177 10.60715784661048 15.54633687943589
Ag 12.482328647983328 16.353780643811884 12.705346687540644
Ag 10.36930646661912 8.840534636799594 13.923786653026344
Ag 10.741899886493774 12.773744373577781 15.541047712769604
Ag 13.49481019341897 13.657546969453287 12.127884823383232
Ag 11.781874530243405 8.486801210849745 9.246628790668847
Ag 15.286370333877906 15.40725084010477 13.365690775721909
Ag 12.90558542614269 14.46302871965935 14.799762500707043
Ag 16.139049973871693 13.743414369656495 11.035677608152634
Ag 15.503275897995533 11.311917425043198 9.749303478439947
Ag 12.461480137585555 11.49466094695857 13.592119521764205
Ag 14.586661924538621 8.734806192930572 9.080045602686258
Ag 11.718416807151845 7.359849924833332 11.885019676353863
Ag 13.21797753176556 12.434942398684845 16.69697107245752
Ag 13.191447702476987 9.874834125104778 11.303163246949234
Ag 15.193820344353414 11.377229607121844 12.654809158372956
Ag 11.747664757469952 10.121246262658818 15.966493027637522
Ag 15.392193124072392 13.13023899222032 15.069713410235213
Ag 17.564092085505507 13.673880817663973 13.409653855938865
Ag 14.528423179058276 7.388261502314658 11.693617621277719
Ag 17.80748990428561 11.503128667195023 11.669404096184167
Ag 16.616449375968084 9.115946080792407 11.0303314721265
Ag 13.174795012562347 8.606964552719223 13.930041300016244
Ag 14.641950270909058 10.43875928596853 15.41425980755816
Ag 15.991220512981057 8.713140298980708 13.686711596101098
Ag 17.281272091857645 11.082051656979294 14.535469740811001
