54
Energy = -118.88598848 eV
Ag 11.591330988102335 13.599800479717018 16.46462953126865
Ag 9.915730359656015 11.241172391911885 16.754838298245772
Ag 12.635295783378096 10.965555167560732 16.249594668100226
Ag 14.223145811699135 12.736770499404283 15.00128794755973
Ag 12.639173053656657 8.224771334580012 15.855896661277699
Ag 13.283162287655674 15.316453212901212 14.681510790179882
Ag 15.901641775747995 14.587158585223111 13.808601378729868
Ag 8.975760463573193 13.274072028184381 15.128024548261886
Ag 7.944762099948272 10.578070848359816 14.6759571660163
Ag 9.198614959205877 8.495168217348423 16.05366656036242
Ag 14.80179368044703 9.756602877844156 14.685548841844026
Ag 10.48309900163002 15.681622985333314 14.732001333428217
Ag 11.472787718289009 13.033049217668058 13.778988818347
Ag 10.825562591713092 9.906497547857613 14.329334865622437
Ag 14.395981807176126 16.375622982506595 12.26704227323689
Ag 15.860988515146488 11.815146696979092 12.85951770787376
Ag 6.8987147587507955 12.63937187361755 13.075938321112023
Ag 12.909140165591902 8.051851626333525 13.083823543898198
Ag 13.781016807344814 13.52721921555343 12.027393796848107
Ag 12.261401050105345 17.686379015284384 13.531785489485626
Ag 16.346496311430617 14.121528106627 11.07615794845172
Ag 8.772024117927254 8.469425479990068 13.016931267254527
Ag 10.706607695220514 6.891103052473825 14.368306433754116
Ag 9.403834162954013 11.583242642980437 12.534572882142745
Ag 7.198600013231061 10.32166816712882 11.454128629123256
Ag 8.921591087664334 14.562907712796521 12.640293655684866
Ag 13.047280983057439 10.943771663559055 13.001226789558203
Ag 10.715054603657844 6.829551794029518 11.565915129227019
Ag 11.661041728968119 15.29425941381065 12.129238994252201
Ag 9.773377501557036 17.278295693826152 12.27702180912813
Ag 15.0694221045288 9.313620730316671 11.727380207924579
Ag 14.803871445905791 16.11322500961286 9.566864798783408
Ag 11.109852850704657 9.682075704532346 11.351974593168304
Ag 13.50183249436511 11.193131792992304 10.241060226558067
Ag 16.363857421791405 11.35193470878271 10.131390393715309
Ag 13.10752218905002 7.75752893179157 10.293029115084146
Ag 7.964991444205316 13.122550087321285 10.46737719509231
Ag 9.722648448457749 15.425926501552366 10.10208422714889
Ag 8.562968688974706 8.179889115050933 10.253812891140097
Ag 12.320177078926688 17.409209432898155 10.533489906864848
Ag 11.195256731129648 12.763251053608393 10.752021363223584
Ag 10.724069797461585 7.069042200135482 8.748801538456856
Ag 12.335297712746042 14.871396787250474 9.23613411574352
Ag 14.927749344687838 9.333031618208508 8.736282483789521
Ag 14.757626385172982 13.380918938824662 8.94522603125786
Ag 11.742198457130657 9.67205634843082 8.611253065480707
Ag 9.208032096253683 10.840391305362052 9.429461515126446
Ag 13.300348327501524 7.432817027601647 7.505501591664962
Ag 9.769078969095169 13.345079002482022 8.25908167178852
Ag 8.721962158585502 8.77237317691266 7.5810918958821425
Ag 12.365907803380882 12.360849774675849 7.913927710562703
Ag 11.062186833869578 8.395881906009894 6.145840118196349
Ag 13.305651967301282 10.09314390632087 6.399639720659219
Ag 10.204475080018875 11.042910794455794 6.694409314464465
