25
Energy = -50.11059455 eV
Ag 13.198050184462875 9.390489991183221 8.656287111575296
Ag 12.055718171753389 10.710013970399478 10.970865154686011
Ag 13.40496235278125 7.851938021873807 10.990131912179054
Ag 12.71012583750835 11.028794252671204 6.399496759446249
Ag 13.078087780209412 12.218466883891175 8.821550772665772
Ag 11.929664111072004 8.994522422932473 13.122400406372064
Ag 13.010461164717716 13.460414439756375 11.324228328940817
Ag 11.249954165043288 6.491074851142441 12.292427563204004
Ag 10.666132263464073 10.518706620725224 8.380853895397868
Ag 12.259308970061978 14.864667939762462 8.879535501107386
Ag 14.939235940371338 7.355775938641969 8.784685443999402
Ag 10.828793669419456 13.055223010918333 7.236944335653551
Ag 10.739758372450897 8.32827351454488 10.259259959655802
Ag 12.679173643193462 11.673676119745831 13.498781521424451
Ag 10.523698172317932 13.067182487390863 10.107410457173453
Ag 13.136354667069863 14.327617982743705 13.903389742775174
Ag 8.336127034748166 9.993456749718582 15.123212935318543
Ag 10.559768130490177 13.70980122902808 12.936920820372245
Ag 8.38018633532416 12.291737838540243 8.592791382173472
Ag 8.85812701604023 10.323617711395496 10.504963712184479
Ag 9.130164763615758 8.402468986952535 12.681669950953026
Ag 8.164836621000276 12.84672564673635 11.53320054153775
Ag 9.977847919016138 11.018536225970104 13.128205317704541
Ag 7.148890906070177 10.53862170606148 12.696498116481013
Ag 8.157536585232283 12.695965364073363 14.350641919235802
