16
Energy = -15.51223699 eV
Na 16.392576477540523 12.851951132975096 14.282583468506447
Na 14.520292111075454 13.553799330316615 10.671605453276467
Na 12.936511831036295 14.335769158577149 13.847932713301404
Na 15.578935299816695 16.1827353619219 12.703198548695124
Na 12.347070981777092 17.577195335735627 14.628120759045018
Na 10.340654428462889 12.459594607252518 15.29591568344848
Na 17.928957367793306 14.099165199182755 11.326606061932885
Na 15.17440922399387 15.81563782062517 16.330166494595424
Na 11.470178941700945 15.219270529443799 17.16777000338298
Na 13.680040834485558 10.949274277487685 13.337129021844783
Na 10.922607284605188 12.497864319770715 11.592304447587479
Na 16.58474074277336 10.706449282640174 11.510467255707193
Na 13.24642170276135 10.371693942666028 9.82823168518088
Na 9.630233406514135 15.54150579050719 13.77273123566244
Na 13.562879657029448 12.521030333861255 16.77738389969506
Na 18.473769676159677 15.602134345113127 14.807445329592605
