12
Energy = -10.75448359 eV
Na 9.442891299806176 13.184303387035289 9.470131
Na 10.939575905356834 10.477233505019184 11.348976362060725
Na 8.0002935772294 12.0840634397528 12.537580539980253
Na 10.9399684227706 6.856198560247201 6.402681460019748
Na 8.0002935772294 12.0840634397528 6.402681460019748
Na 8.000686094643166 8.463028494980817 7.591285637939276
Na 9.497370700193821 5.755958612964711 9.470131
Na 10.9399684227706 6.856198560247201 12.537580539980253
Na 6.631886496985047 11.073009625999815 9.470131
Na 8.000686094643166 8.463028494980817 11.348976362060725
Na 10.939575905356834 10.477233505019184 7.591285637939276
Na 12.308375503014952 7.867252374000186 9.470131
