18
Energy = -17.47517194 eV
Na 14.02681289521233 15.64574759876072 14.871549801570263
Na 9.986971922746505 12.377559653995238 11.892075124726198
Na 11.04957033699645 17.131362982508172 14.087122218376757
Na 17.13724516130635 14.639897541678412 15.689611613045589
Na 14.138830340716572 12.683158715482406 16.600014998558088
Na 11.395664862336877 10.651894391336336 16.85716713556766
Na 15.006094838534365 9.266234803566967 12.024984334357917
Na 13.873106716513224 17.028595249475543 11.724365953389654
Na 16.50877055673495 17.837598515318966 14.029628004132226
Na 16.644044821634953 14.963955633156141 12.17828627744606
Na 11.053751370843855 13.730038504556763 15.01197990419891
Na 12.435457682177146 10.81477305013189 13.632708760852196
Na 8.309534666051078 15.076935831729354 13.360840667113056
Na 16.04453953353193 11.930943885738207 13.849373399249709
Na 16.648720207428603 11.967958193741783 10.460007141513277
Na 13.537969391664499 13.305393102913088 11.403686257232089
Na 14.61889344349985 9.29987687868254 15.73687689862204
Na 10.861437971331219 15.54962355351354 11.042092133076935
