10
Energy = -8.78293623 eV
Na 13.775999178521454 10.770367331013052 11.472892503015201
Na 11.761093192993565 9.851571220674966 8.9411233328911
Na 11.43868267580027 8.774629631328978 12.569232066447336
Na 11.610471748037039 13.123734016245587 10.77838155049978
Na 12.033460566306308 12.061066419720559 14.252955438464076
Na 9.478374349041548 7.831005109832999 10.107420266773252
Na 9.281891020738176 11.185225656194795 12.055459539619612
Na 9.507191672356337 12.160700764878108 8.39665966971954
Na 8.90028463845291 9.033228745359882 6.731958770188348
Na 7.231479976552315 10.158096345637398 9.69191822555247
