11
Energy = -9.99359252 eV
Na 10.35232105475775 6.512537072381082 7.040209678407446
Na 8.157064096654166 11.96786859328065 9.11919747244906
Na 13.257024936793195 7.274807557138103 8.656739005581862
Na 11.11481831968367 10.145737848318332 7.861359284175285
Na 7.725913693072458 8.496288119490915 8.622268567468641
Na 13.191827935663595 10.116884291288963 10.962569515539798
Na 10.22215274067726 8.582772500495409 10.76535844285554
Na 8.30551132070433 13.683870943536311 12.373595172951934
Na 11.074729472585636 12.918845460777668 10.361119037434966
Na 7.164223114749432 10.282634941747116 11.96142604846993
Na 10.39522106309089 10.978560419977976 13.23696552309735
