17
Energy = -16.04642377 eV
Na 14.156898678501596 11.035112231464057 9.264664709151694
Na 14.35809011927396 9.722007851467428 12.361156838424112
Na 13.920925171936444 14.357543653838405 8.56264591231256
Na 15.432491719257186 13.103924211992824 11.93908800087278
Na 11.66741400458285 8.02941722589924 13.684649636644515
Na 11.165348787050252 9.772287859124226 10.636818881937623
Na 11.01924274240245 12.36628593561667 8.163878289040227
Na 12.755878149337498 16.613851549387668 10.740838535667285
Na 12.134894462259144 12.960127639582277 11.402211228402404
Na 8.708879036162278 12.281016706922552 10.914926637605754
Na 14.41262013671322 9.033710794472405 15.713863487683009
Na 9.664345166894208 10.824895119482784 13.78664393245152
Na 11.107402868157614 9.817332937212818 16.723938696022994
Na 9.844145864232097 15.283817872128623 9.785587230324946
Na 12.963160651142191 12.126858948158832 14.771351855428454
Na 13.40877769566069 15.307677456603034 13.789527730184622
Na 10.017560880621685 14.376841056298025 13.572876278797109
