12
Energy = -10.69224047 eV
Na 13.664174915446162 13.644657891761634 11.659813861578828
Na 13.95239276436783 8.540913236330256 14.028094018750792
Na 11.823541179447327 14.059987446434118 14.745231232847408
Na 13.033527145687499 10.46619264038222 11.207787616019024
Na 11.099623338060338 16.22492890065594 12.269943077683292
Na 11.09233084497329 10.842782666425638 14.034070329256112
Na 9.636375471330233 9.683607841338922 10.209004626093826
Na 11.551851331240877 11.826239916571534 8.320246676394245
Na 11.188326932389218 7.729980381043553 12.469908504372794
Na 11.603642818981713 15.075765957894381 9.223796777680512
Na 14.568143986156299 11.824062173543851 14.344308995671714
Na 10.296566154499406 12.847807053905818 11.574934899091817
