19
Energy = -18.19223522 eV
Na 13.400432205837827 10.527960969938638 14.228578202351168
Na 16.192923494849797 11.993595129247078 15.75992921756066
Na 16.80835233480422 10.214019175636812 13.114197798340408
Na 10.154609720073163 9.279441881112055 14.217506231122309
Na 10.594548506617121 12.74837234846051 15.00409090719824
Na 14.49611836771795 10.61580327763534 10.720173780592576
Na 7.873841469492054 11.474513309970472 13.004425853646435
Na 13.596336142734678 14.067034850943225 15.9853996766762
Na 11.8416564929784 8.476397344239883 11.398810794055096
Na 15.265659501948733 13.457871831558412 12.724977314469795
Na 11.328514359069928 11.936979937306601 11.841382553457596
Na 8.885277546687725 9.960490817428546 10.25984239762863
Na 14.816074710311248 16.592435445587494 14.145673748730529
Na 8.735430365422244 14.547052136298944 12.142615640996365
Na 11.795798719884449 10.653382392402168 8.47952111339099
Na 11.968433293388932 15.269669459849787 12.766095257128287
Na 13.22772151976702 13.801096690775797 9.602466914681578
Na 14.763044798917333 16.526427355881115 10.879781947644931
Na 9.691995367417046 13.360887317985583 9.086148508872595
