16
Energy = -14.83713783 eV
Na 16.17947174674766 14.654071668615511 11.6676511071012
Na 17.495042936632775 12.005570961553936 13.168204661237887
Na 13.445230020756266 14.682961427065418 9.759232964437608
Na 13.8968181167013 15.30273381457621 14.11541442718225
Na 15.028059480521105 12.250252183340455 15.442932944785547
Na 13.86776091493832 12.154474927912174 12.1536357009666
Na 11.161043261660042 14.574725404823726 12.309629411800305
Na 9.939325532310843 15.419290075477694 9.06544906555322
Na 15.727716819227313 9.194353267320555 12.895859576530855
Na 11.670638368725953 12.912114992619252 15.334062532703705
Na 11.490643492139476 11.869964561939982 9.571709286221514
Na 8.485219640183768 13.646713840219554 14.403666328412791
Na 12.805377826177725 9.12664357151639 11.023473705743267
Na 8.29172882789708 13.079113186060365 11.029737314781883
Na 12.816219481308117 9.66780670387486 14.575249474617365
Na 10.363266549295838 10.953619142316487 12.75004628656364
