17
Energy = -16.62373587 eV
Na 9.731753982744568 8.380480258736478 7.459105687890941
Na 12.479998197228829 10.721243230620308 7.511076107905532
Na 8.565291249843058 11.631474620642294 8.533079134028666
Na 14.868017462256251 13.324888771854352 8.486067892934278
Na 12.545167118234255 7.796252343909592 9.654435615572709
Na 11.516545637224729 13.719581118577167 9.0597698406959
Na 6.478079105104169 8.852516191381465 8.659002521928864
Na 10.907064528753388 10.586371207931364 10.846830890489743
Na 15.056310480145699 10.18918952773178 10.109471941353132
Na 8.98800358383972 7.622027590580547 10.910701470399799
Na 9.393605418282133 13.487458424287906 11.997464333051207
Na 7.134528901926026 10.728721697611489 11.691249037029186
Na 13.512263865288931 12.988540205879039 11.879062671091091
Na 13.251419284179585 9.542424083338078 13.07538274670208
Na 9.62092853687502 9.291681833845134 13.942745158476052
Na 7.928871408214689 12.305669427942533 14.892201462062655
Na 11.447485287223769 12.25681351249513 14.717687535753447
