10
Energy = -8.6277266 eV
Na 11.617393485757034 12.957533421257969 14.5853780344362
Na 13.150960185080889 12.28079718882082 8.859504074516186
Na 10.592202200118415 13.001460599188315 11.374970004999419
Na 9.691382350702016 12.751581160820871 8.134562982218629
Na 14.131948929647658 12.414355882786351 12.108677429294884
Na 12.955904443814555 9.864933144845354 14.272157403225867
Na 8.515640751541394 10.177464147220231 10.316502578795097
Na 11.005301866030104 9.642514052940312 7.858057822771218
Na 12.076437666479311 9.541834352175018 11.043240528798592
Na 9.503419229067182 10.269849551393103 13.567543057880771
