14
Energy = -13.23057322 eV
Na 9.195453994769675 11.73949004583919 8.574736175704562
Na 12.781576821967409 11.743020162295192 9.179590758293806
Na 11.60443786766654 10.346321148979568 6.087621538817523
Na 10.501285594557476 11.60252887204367 11.841235407919243
Na 9.299188405442523 8.197945127956329 11.841235407919243
Na 11.604041421698591 9.406697783695964 14.433542980649317
Na 8.196432578301408 10.393776216304035 14.433542980649317
Na 14.152118114720842 8.680065789294012 7.942537855840046
Na 10.605020005230324 8.060983954160811 8.574736175704562
Na 8.196036132333461 9.454152851020433 6.087621538817523
Na 12.90993419889961 8.769178793114943 11.242394282775642
Na 7.018897178032593 8.057453837704806 9.179590758293806
Na 6.890539801100391 11.031295206885055 11.242394282775642
Na 5.648355885279159 11.120408210705987 7.942537855840046
