12
Energy = -10.88218018 eV
Na 15.508627527812084 14.514816735723421 14.67127620657468
Na 13.827949312131665 13.269790333793146 17.37622822352899
Na 14.431211729103223 11.137650270103736 14.321020450083209
Na 11.872806097926947 14.021714150464792 14.47291219009764
Na 11.550004335531922 10.914426758277887 16.41520402568389
Na 11.169286345208116 10.943756760713084 12.895201511224258
Na 13.754568562905513 10.121907726815566 10.691490933090586
Na 13.945410183217472 13.468245348340194 11.671914740663814
Na 10.493274789869783 13.93141785636633 11.16653948736961
Na 12.779025958999018 12.774934249591379 8.398962450531643
Na 10.356731818392518 10.572036097968928 9.467902224206421
Na 9.398492015596347 13.513535161211035 7.8063364910534965
