14
Energy = -13.21102163 eV
Na 16.00036897855892 9.294785106776862 11.673626527858978
Na 15.481860228441136 11.425716544486988 14.197083503432244
Na 13.722471248966157 9.477784067245413 9.198178962325384
Na 14.197775289552526 12.419639396824515 10.913519251073925
Na 12.567980888653187 11.462868750141187 16.106806850842123
Na 12.612469398049903 9.978367585323445 12.783562265122045
Na 12.433014602682647 12.26273954502139 7.7130468016420455
Na 10.447283597582972 11.009514110145584 10.273480002825398
Na 10.648746589816996 14.177820441158962 16.43701811745265
Na 12.904558843803784 13.910690421282236 13.621197918236405
Na 10.031756362213684 11.98507215697479 13.527427336075915
Na 11.386623177838931 14.330608587142928 10.522173255887026
Na 8.010065687931299 13.634592715683045 10.955681809216356
Na 9.404926934445344 15.36653611971052 13.540994568583217
