17
Energy = -16.39916082 eV
Na 8.092267964557456 13.10278230440541 12.426732097727507
Na 9.863129 5.58577572203602 9.55333073791542
Na 7.037733933205748 9.863129 6.200910921108178
Na 6.648208098397507 9.863129 12.370546211596542
Na 9.863129 11.835980122721196 6.888828083414671
Na 11.633990035442544 6.6234756955945855 12.426732097727507
Na 9.863129 9.863129 10.956816964300886
Na 9.863129 14.14048227796397 9.55333073791542
Na 13.078049901602498 9.863129 12.370546211596542
Na 11.633990035442544 13.10278230440541 12.426732097727506
Na 12.68852406679426 9.863129 6.200910921108178
Na 8.092267964557456 6.6234756955945855 12.426732097727507
Na 9.863129 7.890277877278809 6.888828083414671
Na 12.48729465248531 11.78730100676615 9.245553745988207
Na 12.48729465248531 7.938956993233851 9.245553745988207
Na 7.23896334751469 11.78730100676615 9.245553745988207
Na 7.23896334751469 7.938956993233851 9.245553745988207
