15
Energy = -14.2562301 eV
Na 7.607262662585882 9.878860037062182 11.48537500845137
Na 11.449290869001551 11.608039057253187 15.768102897715837
Na 11.070493309989239 14.418992135035246 10.466084553377835
Na 10.625539032876587 10.984450690547362 10.24743782588921
Na 7.777134562121191 13.04367297412232 9.684126801334353
Na 11.940914155407485 9.333829677927914 7.400678708996681
Na 9.311426455468277 12.663466388607977 13.215451276290974
Na 13.650505262462147 12.095516335638093 9.053458122525567
Na 10.188816330939053 7.569602093200929 10.06340337842383
Na 10.686677588035918 9.147416038914114 13.364922703202913
Na 8.319322958411005 9.885586876732088 7.833860070818495
Na 13.02383578152089 12.188761299114793 12.682458577669948
Na 14.0630538651748 9.272822770840023 14.357232024564393
Na 10.48420704191185 12.737902826944387 7.199546384636334
Na 13.529983278166444 8.899543952131399 10.906324820174138
