19
Energy = -18.08406839 eV
Na 14.864791976252542 14.157402373090495 14.168493397458711
Na 9.047451776614603 15.5293948024067 13.198856712083687
Na 13.902198888538688 16.274730069184887 11.55683986721413
Na 12.385066509953699 12.027426997114459 15.736692597446586
Na 10.653943746560557 16.201634430848717 10.39769829203122
Na 9.019966327605882 12.485615444641166 14.46306012583864
Na 9.635884116840701 9.533218121909261 16.15749671769429
Na 12.783365020868128 8.576498244901796 15.248664715252806
Na 13.39511031926639 7.889887742374749 11.899288473911307
Na 9.299529834708414 12.602798278664535 10.74070248144408
Na 12.23826717852171 10.663408027296722 9.99834353820501
Na 10.702656929868928 10.01612440907315 12.814779902992713
Na 11.793210231306194 15.408720515629469 15.305913154432721
Na 14.489683252006346 10.93847506826364 13.200585407358469
Na 12.028995008436363 13.454260207063228 12.427350832763105
Na 15.638935432431346 9.785041269014608 10.0346232492902
Na 14.440613436320668 11.552999230056638 7.3700512497537956
Na 12.182220461117367 13.820170515741715 8.697185023863767
Na 15.16901114988679 13.200860599360274 10.658631774432822
