18
Energy = -17.94004882 eV
Na 12.574771126112191 12.316681697917717 7.1449373112822965
Na 10.141314922643954 9.523306015340651 6.886940868894817
Na 13.41744925903765 9.359233755291234 8.55544989330099
Na 7.260279392722401 10.707730257930127 8.839123798768508
Na 9.13600898177132 13.051953812923843 7.298142624801507
Na 13.770591264175096 12.236021157325874 10.687849355477287
Na 7.954443076666069 7.407868019118214 9.028419533091204
Na 11.350590808860998 14.624458358747992 9.450027845340522
Na 11.389103174958414 6.654031869453856 8.840775966434746
Na 10.576997355744307 10.590132404035437 10.612612657636308
Na 8.341355977056887 13.358645228415671 11.003484028208224
Na 7.5530866009529545 9.418308633578615 12.192887028808695
Na 9.705635086735553 6.537375247345061 11.885234313782806
Na 12.918932185673983 8.186799084925633 11.913894478975573
Na 11.448214966752598 14.085434237702678 12.847938009240144
Na 12.806714436056975 11.118364098208774 13.970744272060175
Na 9.129468280288185 11.936011844905765 14.208033377854875
Na 10.356952888511735 8.719554061554717 14.465414420762748
