15
Energy = -14.21627334 eV
Na 12.34525295729789 14.02195580552324 9.36843262057676
Na 11.880156830568362 15.37982325057125 14.041356301440578
Na 9.2295847488303 13.590719423600225 11.704198405546482
Na 14.769057285553938 15.073272943634294 11.893478242263042
Na 15.985059984077616 13.512029542177608 9.054430257488725
Na 13.802423461073992 10.784414720905165 9.013001291471339
Na 10.342203332239093 10.90603559525132 9.585634758982929
Na 9.502685646254974 12.93787963246303 15.220867953522486
Na 12.323520613668226 12.36950339829065 12.354380238513537
Na 15.657556979643726 11.493520248358246 12.03844204561521
Na 9.37787346429411 10.19886760818664 13.057208476037138
Na 14.755428225415951 13.354303006643748 15.000446807607613
Na 12.194390929963035 13.81276715073428 17.286744220980783
Na 12.283475057551497 10.699929904993768 15.33371232341126
Na 12.522632461149508 9.00703193361971 11.835944701266587
