19
Energy = -19.06047098 eV
Na 15.361108662641904 15.143002523362794 12.502603617221475
Na 14.718198788464338 14.004931553449635 15.704048506433285
Na 15.839305999753737 11.540950481988764 13.214136600510889
Na 12.450216446473393 12.52110653352536 12.833550600073348
Na 12.589524719360806 15.650397475341595 10.420883139610535
Na 9.32831764010424 16.301839802992365 11.551561393579195
Na 14.933956422195651 12.857343099977816 9.900049249213051
Na 11.985491761908046 15.816715188295996 13.928408031648999
Na 11.273117405425722 13.418778539348175 16.43641162698721
Na 9.047450154375937 13.310093997437338 13.612959060165718
Na 10.272396105607264 10.259252041127867 15.247078858904278
Na 9.713017611005638 13.229751626285351 10.095674122516636
Na 13.745405490273642 10.722890345324599 16.046712928483267
Na 15.072403004205 9.322425333601068 10.407189923893151
Na 12.268217764038123 13.692208552439116 7.620307928339148
Na 9.579673214938303 10.091403348105285 11.832258696578242
Na 12.892548701643776 8.995935981269136 13.171810447988708
Na 12.085602366489788 10.752650939392163 9.497918813516213
Na 11.704059240460685 7.447998960803964 10.381359063409352
