13
Energy = -12.14437318 eV
Na 10.513994436874253 9.487140017731772 7.249918123375542
Na 9.620587679667903 10.015733221587979 10.545858726149744
Na 9.50445312841314 6.777774876251992 9.353021003408557
Na 12.807594835621726 8.174722648792734 9.611902971890995
Na 12.584279123109901 11.750100497012172 9.184529541734282
Na 11.580026135113057 16.445885116171414 10.76656514008155
Na 9.856129591664146 13.436102606611342 10.721054644206207
Na 13.377996412045512 13.846062133510186 12.026617311710458
Na 13.154462173057077 10.380232308047876 12.410200522976078
Na 10.96404124445414 7.562566240375034 12.570252315151544
Na 10.465552759339758 15.049561832715185 13.85192677399577
Na 10.002625852899161 11.479254201971466 13.683662537558474
Na 12.833369718536124 12.859977390016898 15.289603478556858
