14
Energy = -13.0708707 eV
Na 8.11488316955195 10.026628 12.417428923608655
Na 8.131895109857838 11.79670185463795 9.203928152158554
Na 10.026628 13.0559859763178 11.883469390436185
Na 10.026628 8.161736743394561 6.215913741396351
Na 10.026628 6.997270023682203 11.883469390436185
Na 11.921360890142163 8.256554145362045 9.203928152158554
Na 13.006333880605975 10.026628 6.220253718551177
Na 10.026628 11.891519256605442 6.215913741396351
Na 11.938372830448053 10.026628 12.417428923608655
Na 11.921360890142163 11.79670185463795 9.203928152158554
Na 8.131895109857838 8.256554145362045 9.203928152158554
Na 7.046922119394023 10.026628 6.220253718551177
Na 10.026628 8.291867093620908 15.041474172612908
Na 10.026628 11.761388906379093 15.041474172612908
