13
Energy = -11.29631967 eV
Na 12.854577715749757 13.675960033812915 9.096128620424313
Na 11.524757347424314 13.522213275080816 13.188731455450121
Na 10.533046556944708 11.620589085919018 10.786748048005624
Na 13.949784897998168 11.545027248582615 11.860718995403374
Na 10.41771208290448 11.5596704625221 15.736389166918931
Na 8.784162993375613 8.027319578743736 9.886927954523292
Na 7.323423138733034 11.040205754090882 9.926523999715052
Na 12.397409286442509 9.396245374696054 13.785323515948797
Na 11.794718616615 8.48834681765549 10.766725597722054
Na 9.62577798996038 13.183780575785756 8.02170675266893
Na 13.423088150872228 10.41729439816495 8.601710487261112
Na 8.989752539521017 9.953970627941096 13.083127610560688
Na 10.42919034262979 9.948981982068466 7.433127718908567
