18
Energy = -16.80655235 eV
Na 11.40870756384475 12.009012929277501 18.0701520979778
Na 10.092414921012827 9.179389910513851 16.849499150377103
Na 13.018848179794057 14.063232914908298 15.959212976306725
Na 10.716983106046543 15.629282627200427 13.625488938982759
Na 10.036590491689234 11.999271592224966 14.439679004778093
Na 10.14616614798027 8.167492994857222 13.653865115739244
Na 13.08335181522048 10.296771751520387 14.952147203077049
Na 14.539051131257985 16.086756944407647 13.53611981540126
Na 16.00777260605186 12.649293967714165 14.465341003526126
Na 12.949191073755463 13.014974878354172 12.636382660087364
Na 11.515590078666332 10.132713063912552 11.315717445720278
Na 15.93776645394788 13.8078950361667 10.972793053245109
Na 9.830460209149525 13.312571807333969 10.900881688739927
Na 15.740399862600876 17.36270517944065 10.500794825317946
Na 15.114526791146362 10.306072128804487 11.767322268092503
Na 12.562438548735287 15.72221147059041 10.435499981730993
Na 13.126923759621935 12.32095632183112 9.117563937508772
Na 14.882998038384118 15.036120841739274 7.776905789274069
