14
Energy = -13.00967433 eV
Na 15.217122553571278 10.37248 10.37248
Na 8.612642693128157 10.37248 12.160070394294722
Na 12.132317306871842 10.37248 12.160070394294722
Na 10.37248 13.512145137825241 12.104136442498216
Na 13.45782832817031 13.43654281557097 10.37248
Na 10.37248 7.232814862174758 12.104136442498216
Na 12.132317306871842 10.37248 8.584889605705277
Na 8.612642693128157 10.37248 8.584889605705277
Na 10.37248 13.512145137825241 8.640823557501779
Na 10.37248 7.232814862174758 8.640823557501779
Na 13.45782832817031 7.30841718442903 10.37248
Na 7.287131671829688 7.30841718442903 10.37248
Na 7.287131671829688 13.43654281557097 10.37248
Na 5.527837446428721 10.37248 10.37248
