19
Energy = -18.4346069 eV
Na 15.812498986347341 11.481669474141846 9.15854400265143
Na 13.487462217168362 8.706410781954743 9.301375044046306
Na 12.790571092356661 11.71841967982241 7.652505256954045
Na 16.923671148824045 13.542129254756128 11.546768565080342
Na 14.348533629154364 10.706422016323609 12.111059935862704
Na 12.03058331549575 8.230007486194967 12.305546139442733
Na 13.482926487780516 13.822584756915594 10.56207635233797
Na 10.769151085955675 11.104037086078986 10.343381617721263
Na 15.328286367453105 16.467841679788688 12.078951362234942
Na 10.222901281558702 14.608249507223217 10.822699319561389
Na 11.488705078549817 12.564747689549613 13.276896403950554
Na 9.362208504409477 9.657234238337113 13.609556783229888
Na 14.801166269919475 13.367883578656711 14.218363470176875
Na 12.309627167806472 15.990437590570899 13.543886784573022
Na 7.973856753784379 12.495793864880891 12.302939117312283
Na 12.930296783819536 10.310516779121027 15.25409336662494
Na 9.247868434983499 14.870846944474238 14.549973735728114
Na 12.38388338699895 13.81548926061156 16.572885378510424
Na 9.754445205475577 11.678793809592358 16.240624412594563
