14
Energy = -13.24728017 eV
Na 10.703886056529862 10.710633372440975 6.742889736320765
Na 12.856099208124608 12.762732720479306 8.336576752468401
Na 14.315379155343399 9.64869122533908 7.4808548238544486
Na 8.872857744144033 8.980320170197276 8.952293449795944
Na 11.722121160630747 7.314953258041073 7.718201941483684
Na 9.675209866087227 12.325666521524203 9.854393390878467
Na 10.49565378528048 15.108654136682265 12.461045222825666
Na 12.389839845503023 9.496466760901457 10.286952095636591
Na 12.687462273214836 12.508551151168588 12.019244563768925
Na 8.219021265798949 12.74450853544886 13.468047094481111
Na 9.688899232026667 9.857436419005653 12.495768045185677
Na 12.689218872568436 10.079878290650015 14.406871135146156
Na 9.472416166240698 10.576152759753768 15.933790832051432
Na 11.608858644920405 13.282277954780568 15.23999419251564
