13
Energy = -11.73797197 eV
Na 14.8566527765232 12.565794694725133 10.003525308761184
Na 13.26087384253023 12.911171657720166 13.270980893437905
Na 14.245046441430798 9.814849277757139 7.886710197439805
Na 11.505669303536807 10.059150434673267 14.369296649652606
Na 12.763599272109882 9.88303166343507 11.151443559853673
Na 12.256260337201285 14.8489642665201 10.527147116593746
Na 10.879624955367643 8.407342313398066 8.360177014507716
Na 9.34229713055429 8.630054484980162 11.820292419877445
Na 8.090554832446545 10.482537112034661 14.75723708984444
Na 11.598420202110606 12.000300009500416 8.633472777766134
Na 9.940934243248755 12.189071366711538 11.915386264359945
Na 8.35692105850376 10.650650866090245 9.083299921373497
Na 6.388848803381374 11.021713210131058 11.906817719451338
