10
Energy = -8.76043723 eV
Na 7.933588403409967 10.969265706417547 10.649691444466411
Na 10.828235468634611 9.574340841521487 11.46565477859819
Na 9.954867806754985 12.59400193236292 13.20292541333149
Na 15.515683148839845 9.467506635463867 12.91945423293054
Na 12.670393622442564 11.018881749258934 14.01008724609481
Na 15.784978952805634 12.671924389424339 13.105291166794746
Na 12.916656889979874 14.114884611834519 12.25247290251524
Na 11.037800931251297 12.696358553416555 9.717352478778409
Na 13.758080016320758 11.112591785707686 10.495133831330625
Na 8.147198489528797 14.183362355079383 10.770587647624755
