11
Energy = -9.558783 eV
Na 13.37729725423612 12.910969678926842 12.109669831056307
Na 12.544884443592249 13.007906330964179 8.448095944520665
Na 14.530198073382403 10.614190325989155 9.692278318799852
Na 11.907514858878562 11.787253126871557 15.10106833978726
Na 12.540778797534234 9.603715834431695 12.405069314389136
Na 11.596084557298727 9.249765628383718 8.804339168555014
Na 11.262927080374336 15.29822338573671 10.54416049014327
Na 9.470497371578771 8.260203411783506 11.205445760200691
Na 10.29114440745381 11.79684588007639 10.843749459279401
Na 9.158866029539691 10.34521235861879 13.824625771960562
Na 10.113151132501583 14.11098578237446 13.474111164993406
