12
Energy = -11.06031044 eV
Na 9.524883977351417 11.228875133474233 9.622238058129174
Na 7.597536808057992 12.642880013334869 11.955783692630982
Na 10.841507512238676 14.2984019882332 11.472363407493347
Na 12.800874606773045 11.541926904504201 10.665058078553148
Na 8.885101116916431 13.943097865059595 14.750040754632357
Na 10.566020123617916 10.887546140670308 13.255934891597091
Na 14.554194175686664 14.255504043422183 11.971393036540006
Na 14.273173572777353 10.836390748765496 13.734469759653772
Na 16.231539662939653 11.174790903702615 10.485686879827176
Na 12.318478904798692 13.602984565896008 14.542783701185199
Na 15.582215374870282 13.83744726787761 15.637225959996119
Na 17.520019217804503 12.509367520442604 13.263018305505437
