18
Energy = -16.97184333 eV
Na 14.99653580923729 9.115376869613662 11.84963102764897
Na 14.297342564965925 10.68921120918195 8.821220777326856
Na 11.561425021387949 9.65914296421614 10.514658324558372
Na 14.966263400321152 11.11446021947006 15.321451979006271
Na 11.64602134481232 13.029727713901478 9.199217699083878
Na 16.939151613855284 12.163068596867925 12.830666447623639
Na 12.203121105865774 9.363098558262926 13.937096127295252
Na 16.181399198674864 13.305502851468109 9.833081973847865
Na 13.428019400154502 12.187016066966608 12.010957906917781
Na 14.525093945074444 14.708020937308087 13.944011483536663
Na 9.581308329262587 11.785673794750213 12.308254854571018
Na 13.915575423612854 15.59745929882573 10.490766266320442
Na 11.880856296122088 12.804026409783459 15.17217541032657
Na 8.465206178465548 13.91386799069792 9.644317479198817
Na 9.312712898800573 10.019281120488234 15.425924344492074
Na 8.524134750722258 13.212196888344053 15.369309489939793
Na 11.202872024849404 14.95967615287286 12.40219589952563
Na 7.793320528231398 14.971669611190869 12.677416543976731
