18
Energy = -17.86545708 eV
Na 12.15033859572571 9.767326286975575 6.7674315718240265
Na 9.227277465969753 11.608882465519525 7.460912833922607
Na 9.730031244107497 7.99854114687317 8.837862670031337
Na 12.70602771663368 12.587898237532169 8.791087463608182
Na 6.97293302664833 9.95700169185387 9.82107784591353
Na 12.853569636397767 6.559189270903667 8.112065461339276
Na 6.310827397688388 13.233760352407296 8.853094482861735
Na 14.559333688607753 9.523108661919753 9.146896709523073
Na 9.520486033569052 14.344200984451115 9.592788519228316
Na 11.42372065626589 13.813629949923442 12.509831264233357
Na 12.273960065301386 7.6667553204150405 11.3780162418256
Na 13.94585456415111 11.211271872251613 12.13593057853407
Na 10.598341227257356 10.857929728294497 10.749597258523398
Na 7.672499095543206 12.486237091725489 12.119565247248135
Na 8.895169534605913 8.856072257164127 12.787268589891912
Na 13.141366189392018 12.483551989957364 15.289981250007576
Na 12.0280981267008 9.140297914678182 14.529763013798357
Na 9.711400523000552 11.625579564721031 14.838063785251673
