17
Energy = -16.42727564 eV
Na 12.480105487353521 7.6787472205736 11.6604128898113
Na 7.614299413970318 12.623495706542965 8.614929053137253
Na 11.26525446361436 10.491254366199993 5.804253987529826
Na 12.511441171971741 11.211961977783693 11.68499069011954
Na 9.435727 7.323319148228063 5.804481498680557
Na 6.360012828028261 11.211961977783693 11.68499069011954
Na 9.435727 9.437017501094385 12.533072701146967
Na 11.285291913204103 6.264337659296349 8.613750779864088
Na 6.391348512646477 7.6787472205736 11.6604128898113
Na 9.435727 5.883416000973025 11.683674855626823
Na 9.435727 9.435219391448824 8.741661278571334
Na 9.435727 12.950094159177164 11.660271086238271
Na 7.606199536385638 10.491254366199993 5.804253987529826
Na 7.5861620867958965 6.264337659296349 8.613750779864088
Na 5.76487320799388 9.419349469142539 8.613761514867425
Na 13.106580792006122 9.419349469142539 8.613761514867425
Na 11.257154586029682 12.623495706542965 8.614929053137253
