15
Energy = -14.2580048 eV
Na 11.818752016086261 14.56184049157882 9.769024711041641
Na 14.104713121475847 15.463371164959831 12.455198413821313
Na 10.608512406946447 16.046286379282254 13.151044452562425
Na 8.972045718508118 13.213441576183936 11.634874064358232
Na 13.157092614580991 12.235523724576126 7.481417009301804
Na 12.077826075352364 12.757420749330617 12.987694076743006
Na 12.75091009534104 14.663908117962723 15.840062560388924
Na 14.2258536891404 9.084891047040585 9.271931764784778
Na 9.504426178070949 13.201682765733668 15.310690879580902
Na 15.188285045537208 12.298483315236535 14.279676552516962
Na 14.754363779472287 12.29742968346548 10.605776444877106
Na 11.283752660500811 10.802098414675713 10.082210374522994
Na 10.106162275707728 10.004540741702016 13.475193806341583
Na 13.637745095002108 9.388264483409966 12.732420889680048
Na 12.371089170280255 10.966993153155927 16.095241723548327
