18
Energy = -17.08108613 eV
Na 12.30241401114363 16.46783811171817 14.94854284044767
Na 11.902165141468096 13.00922260145006 15.378168653245526
Na 9.833845125731306 17.744501561350187 12.96357186965626
Na 9.452413532949166 11.62199608796845 13.45234401994773
Na 16.09320282195152 12.335598198553171 10.837957284736415
Na 15.2146312951183 11.223845288345727 14.140093728530585
Na 10.80461277788736 14.54411669264237 11.931921736767785
Na 13.021762136964337 17.377350323179577 11.51857592551693
Na 17.55541956590323 13.960893131807715 13.729437045345206
Na 12.58850973021872 11.49558290772599 11.794615273350956
Na 12.095493824054758 9.654806472678011 14.814828179231215
Na 15.75561856614682 17.172292910156585 13.963500808166827
Na 14.296023220642605 14.433270220893698 12.746310853381516
Na 9.030101594054717 14.869127236046815 14.921032163376774
Na 13.437912796312123 14.358389349165456 9.513600919511056
Na 14.976361678804574 14.456735717424968 16.23549807808456
Na 14.025172986425357 11.178513534654599 17.422131504258736
Na 17.402997293148808 12.108449546587629 16.719813501977335
