15
Energy = -11.18291892 eV
Na 9.144755809150078 11.446010423006888 6.346102594488424
Na 12.550467754287663 10.19583038276405 7.265265780236783
Na 11.127518826520193 13.133641455944819 8.718911879149276
Na 15.615959287754048 9.532972366977772 9.292284121504542
Na 7.654604667830358 12.883187652822484 9.480250060321065
Na 9.735999728827723 9.948497496903494 9.525640608962776
Na 12.500808906658483 7.7465144685790035 9.904688770625599
Na 10.360589057316348 12.708994371298266 12.076715530299982
Na 14.53525653687439 8.602735020462317 12.728486576558653
Na 7.433428396581508 14.099333376558322 13.007869019703971
Na 7.4760473095038265 10.536152863896753 12.20158933506855
Na 13.118829427988858 11.19212526494435 10.824108111018294
Na 10.717070206735631 9.058261865873655 12.729971925817603
Na 9.167245455374015 11.628095276034871 15.18925863860157
Na 12.714838106747298 11.141067192082918 14.562276525793177
