16
Energy = -15.45299919 eV
Na 11.346358080149134 10.53991313680207 7.879737069351671
Na 10.323358084081333 7.232892766588473 7.513186932125298
Na 12.154207726783758 14.101464043115113 9.19232834784534
Na 13.089762092526358 8.096576639764455 9.633814359956848
Na 8.989347621305436 12.537341231748622 9.94183138210021
Na 14.894914553395678 11.275537474138337 9.36192379473921
Na 9.192097735020317 8.885649464922755 10.360758378932456
Na 10.750103711978223 5.7515170520525505 10.866153620653154
Na 10.692578514535741 14.6207266983549 12.336574831267946
Na 11.675488911623418 8.337536768318664 12.96163623906825
Na 14.478779554131641 14.004169492241335 11.816038063814002
Na 12.12814399111884 11.312246108539329 11.216304407846106
Na 6.304785615010208 10.58151521520357 11.56389659215513
Na 7.1602440303278305 13.98539240234486 12.67440182552421
Na 9.30219991803985 11.284069720225618 13.250756364028275
Na 12.523055601408787 12.458877527075739 14.436083532028288
