17
Energy = -15.78673677 eV
Na 15.43998905153339 16.13630184733301 11.334722959512886
Na 14.583897823664016 14.039658259552851 14.191560611811434
Na 14.310816913413882 10.876813783067666 12.929330626049797
Na 11.901497438773447 12.012906845558797 14.841256487046318
Na 13.110476480734734 17.24791724908799 13.221232274841633
Na 15.803351687404133 12.971200555517958 10.759952444778714
Na 11.978888588933055 8.487029674101748 14.22629277097051
Na 16.043031444318277 9.709498134280482 10.036556560463803
Na 12.975830576419444 11.456693124919777 9.189762625547784
Na 12.396251743110762 14.080161724239716 11.469940989998005
Na 13.238453955986659 8.179339626935464 11.063269743389636
Na 11.004650760023516 15.23851280979724 14.632936478290334
Na 9.016311095466191 10.162014551561574 14.453970803627545
Na 10.790177799016666 10.52043605445054 11.547608685240466
Na 9.963706200623662 13.001208348226607 9.07262368801139
Na 9.080649396593882 13.292781774771719 12.337370155484345
Na 8.709702728376712 13.15884745464782 15.927139584389595
