10
Energy = -8.34852851 eV
Na 13.388403753122805 9.147468760640702 10.039228214759142
Na 9.221353921470309 6.958077921104137 9.304174308599956
Na 10.452379509086002 9.763434560193346 8.321361207607294
Na 9.997721743850946 8.551777948483727 11.973174064519993
Na 12.358711456214694 10.54181840393902 12.931005043011462
Na 6.532714219927624 8.628268215295517 10.014612754583402
Na 12.386451285221382 12.304009079202567 8.750653888135743
Na 7.416196640166956 11.019753450482474 7.941052474442306
Na 11.317830175095393 13.333304117649744 11.641848357753885
Na 8.861956706180727 11.384784389267573 10.946918161298896
