18
Energy = -17.70950224 eV
Na 15.500219289720246 16.389770451594863 11.312414330147673
Na 16.0418637407101 12.855238217517385 11.514190929252214
Na 13.739144763115172 10.9435250378392 9.288426422456228
Na 13.03902752938152 14.430259073278188 10.160407658893792
Na 12.381059805928338 17.107783374278352 12.84091191533434
Na 15.335816439978023 9.200492929867266 12.032558487542733
Na 14.345191484865493 14.70144337286131 14.434766594569592
Na 10.48793656045256 12.017332746211437 10.454994260697415
Na 13.016772590888566 11.824093234627897 12.843289318606129
Na 10.81857962915523 14.290384088683615 14.209988862821904
Na 15.805022789229842 11.309103550863451 14.894612929969446
Na 9.762545782486637 15.495814751473366 11.009193552816985
Na 11.834897447968219 8.743702593356355 11.48086371323683
Na 12.593460709191177 12.08455538810837 16.478879705856293
Na 7.820377023860578 12.871502967666823 12.579628438865509
Na 13.143417749399301 8.862067424305556 14.998847609014419
Na 10.111773612814936 10.598064807197202 14.323725018292123
Na 8.277492274440236 9.532305622317942 11.428478645599403
