15
Energy = -13.87176595 eV
Na 14.425520506498447 11.583282465376087 9.557506143428895
Na 15.102578308596293 10.78546721426024 13.046197323381909
Na 14.320622856914275 7.408684881820099 13.699203175669942
Na 12.352765338187135 9.086653311000699 11.316149334899036
Na 15.479226288928324 14.173728104824871 11.822006929504006
Na 12.54547782440532 14.725575462040293 9.43005403731838
Na 10.94732100899046 11.203083431734733 8.868905809693599
Na 9.11262399173086 13.875497371961355 9.948021251974795
Na 12.827442857687545 16.25259435804747 12.675395923915046
Na 12.100444933445852 12.64770841648012 12.099669065063669
Na 9.144216434409232 11.035853410905792 12.337736489449556
Na 9.644112753727972 15.013855390487478 13.091360580760156
Na 12.08487541926234 9.988201454267562 14.685657322431721
Na 13.551148998922814 13.600240405971764 15.048440698361112
Na 10.103201769583295 12.657236328658271 15.518339957885123
