18
Energy = -17.96098952 eV
Na 8.84782955729964 9.358763877260358 7.879980529515954
Na 12.243357575965565 9.26211157213479 6.777321794215452
Na 14.181969248565174 12.133550296440998 8.271624147164927
Na 10.76469178066465 12.46606791592725 7.087425771845797
Na 8.445666391204057 12.563762519528794 10.035367433722394
Na 11.303079434939368 10.649802080321516 10.045194276328836
Na 11.724864033792787 14.250347808346877 10.087875591075406
Na 10.983779126069885 7.129634184598025 9.729702511824026
Na 14.226794053848021 8.865323645100284 9.756768620043202
Na 8.0417528909908 9.029955093087356 11.306684876819466
Na 9.531370780294857 6.248780754693108 12.814044874690737
Na 12.782051570482851 14.95142063270155 13.365223406128539
Na 12.112748782431746 8.707864124401976 12.868464959161466
Na 9.189414437962792 15.002534052626434 12.467605477000921
Na 14.077770224242864 12.031725232767482 11.81835373911711
Na 7.287585730764381 11.90120134125087 13.264515106088297
Na 10.874806044349432 12.022609966105865 13.477212400713373
Na 9.176513458806433 9.220590025381629 14.74267960721925
