10
Energy = -8.78377033 eV
Na 11.738379721850453 10.227267979366058 8.349220918423715
Na 10.260782385131392 12.83834951723008 6.644157006730462
Na 10.794018684938685 13.373987413665889 10.10910033099438
Na 9.231756324248204 7.948052747682583 9.276927449463606
Na 13.499944902109528 11.506547497157964 11.100279920454314
Na 8.220644095999452 11.269281937103644 9.091925896765426
Na 12.286791969474177 8.037256836116374 10.996938819212483
Na 10.041072363035896 10.596621991472835 12.054508907990533
Na 9.297939661599514 7.153029946097743 12.79991979904074
Na 6.669837659378176 9.0122594276024 11.52692055846355
