10
Energy = -8.89421053 eV
Na 10.887351781421193 9.931458196344002 9.072016571551734
Na 7.591936516105169 7.636318826999028 12.361051770372622
Na 12.98504402903532 12.754749847230165 8.694739009533091
Na 10.958860493500955 12.694520298912208 11.667031589970493
Na 9.201375302859235 13.053605404289987 8.818012147587432
Na 8.067014622059489 10.74275552536189 11.169341979978594
Na 13.682700707903468 10.258279394628923 11.031963661774778
Na 14.258931361345736 13.746343590672572 11.72962928049815
Na 10.768637341872546 8.960057813529144 12.462102231125485
Na 12.785038418874338 11.408801677009915 14.181002332585594
