13
Energy = -12.15306653 eV
Na 8.19735482310512 5.859094043804246 7.342662823472723
Na 5.430011645521207 9.542307744008587 10.817195576775639
Na 9.692736425441437 8.230132708258967 5.2009396684457085
Na 10.593899470766697 12.032438664393148 12.812600173759519
Na 10.85765373182887 8.730441536796897 11.941388841397025
Na 7.8511163414117435 9.718457295940135 13.376013017552495
Na 12.788606886757924 9.713240078125091 6.3877531956994344
Na 9.76861326854044 11.222269670228227 6.965099961931012
Na 12.090474803462932 11.132029463440343 9.643144204972298
Na 10.621040985392133 8.085714298524552 8.512930172320607
Na 8.579800593264187 10.939847600181732 10.241167444974373
Na 7.968553914681249 7.274192859189506 10.646442086178402
Na 7.115324109826319 9.075019734212647 7.667849832520629
