12
Energy = -10.78624039 eV
Na 9.32028419187982 11.341899872619717 9.265619
Na 12.709323015362072 10.374154097604373 9.265619
Na 10.656949289896309 9.744834133695715 12.206259372316163
Na 7.679246502982736 8.127885828264375 11.081673753556169
Na 7.679246502982736 8.127885828264375 7.44956424644383
Na 10.723475328968533 7.40090608120526 9.265619
Na 10.245919947910686 6.349014699564772 5.806456977137466
Na 10.656949289896309 9.744834133695715 6.324978627683835
Na 10.245919947910686 6.349014699564772 12.724781022862533
Na 7.678803749117139 11.560362961990307 6.079884377537597
Na 5.912506233053063 10.506272701540297 9.265619
Na 7.678803749117139 11.560362961990307 12.4513536224624
