17
Energy = -16.0961629 eV
Na 13.47903629238405 7.947811456491453 12.131165132121165
Na 14.919505225643968 13.35996269569436 10.251997001781053
Na 12.25657374467977 10.854335573968822 10.579514412799583
Na 15.41399712266084 10.776174583512592 12.891242165938865
Na 11.26654728831527 7.784602976438509 9.235066985365075
Na 11.236465185945645 14.320739174528061 10.180476045419658
Na 16.40852447650218 14.46705922489021 13.364820372620864
Na 13.699996632169237 16.64146459158451 11.638260261122584
Na 9.874738606759474 8.862642641267332 12.192460140564995
Na 16.07768408485243 17.98662941701026 13.871071740440167
Na 12.927841504120336 13.360660208238782 13.046107607627317
Na 10.436670207345822 16.006506391640723 13.25025391111702
Na 14.7201997776519 12.686768636825294 15.993911479176084
Na 9.509193878191748 12.313901297495958 12.764282313804502
Na 12.20117518019106 10.183297730828096 14.538658468889448
Na 13.562465480768719 16.0740960532962 15.311268362534335
Na 11.047828806825095 13.565926697302578 15.88851898100543
