18
Energy = -17.30129889 eV
Na 14.389962168298693 12.811103598611208 7.156168053634606
Na 12.739810871199303 14.717635686530922 9.653682396366234
Na 10.679887793143275 12.541687606559968 11.65490403573473
Na 13.604758376038781 11.078853686646278 10.146363858365726
Na 11.537178744927754 16.046243380665288 12.824543791995065
Na 16.209113602758922 13.650561546471817 10.125729097691003
Na 15.06485848921232 16.709951584155604 11.860923899378584
Na 13.98464254170058 13.481568078049552 12.76330016852449
Na 11.414790203058347 13.169724666266767 15.077487343885135
Na 16.418541606922844 10.944331910992563 12.63673980345896
Na 10.931799952614048 16.288192653983547 16.4060682727316
Na 12.935495064304495 10.204867110875337 13.634296409726954
Na 12.309847082528307 10.646512135531333 17.221132414017934
Na 17.324087302063703 14.384297082571113 13.605567092318967
Na 9.803612220131939 13.190620281813409 18.09004981363788
Na 13.22569185571964 14.037296181348768 18.081321234474913
Na 15.297736427840878 12.26055157604722 15.868419019999195
Na 14.413414813904298 15.899081866448366 15.366050758705775
