17
Energy = -16.12645477 eV
Na 13.967059376085844 15.174855534768412 12.950876238131567
Na 13.004382067221405 16.96009989096535 10.090712821171083
Na 10.69182305893644 14.355885754523722 10.910859980558977
Na 10.868957709633023 17.14394259934544 12.937840924073644
Na 14.016392335074249 13.445141327488608 9.636127170203004
Na 14.268685432543574 12.749096810363895 15.65311634331286
Na 16.21624653634377 12.333023115038948 12.494754763638314
Na 10.884345913812291 14.001179763602522 14.79208739218648
Na 12.682891905549468 11.961590275352918 12.54223918594202
Na 7.926167721975306 15.046593139016831 13.09036686272021
Na 17.511091407704463 8.968832093097479 11.952745868028561
Na 14.517793665987716 9.895795502200695 10.321127163417646
Na 14.603621943470683 9.398593747060195 13.98863341893268
Na 11.109987310265396 11.077248183718869 9.420602844755892
Na 11.427890014951124 10.472819337858608 15.436344838781412
Na 9.144292326055183 11.568584567369491 12.59082465334063
Na 11.409444189876234 8.720991251854006 12.224962153048196
