19
Energy = -18.99054154 eV
Na 11.691980649911986 12.739243853290985 7.460523960524267
Na 14.407630608512346 10.778512076507255 8.43979177759082
Na 8.624859475893423 12.561843905444174 8.813689030701095
Na 11.010690200534546 9.44963360754641 8.674450054009768
Na 14.290856234230255 14.155081020776247 9.315070890609952
Na 10.94972820412553 15.020218057792457 10.216520230726193
Na 8.053767994913137 9.701649151942945 10.48062723124041
Na 15.383930233301658 11.665506710296242 11.755361070894695
Na 13.903516933401827 8.22581598906553 10.55696936870836
Na 14.090497383366449 14.996907229472614 12.560112699814356
Na 8.27006295954945 10.04155285682461 13.812536685171118
Na 8.30178351997895 13.227932734284211 12.208662209566848
Na 14.261550526280324 9.080696677058182 13.785583482280558
Na 11.641281123269469 11.63288240531226 11.644880004262554
Na 10.834648641949755 8.016904095380282 12.169794967601492
Na 10.935377150286559 15.310898588362274 13.678155581701235
Na 9.875227146361246 12.668754425184355 15.456936169156924
Na 13.3857904504073 12.478364413026725 14.845180935433016
Na 11.339304602929905 9.500086241636922 15.377637689210367
