12
Energy = -10.81411949 eV
Na 12.237903706982829 14.279127458835564 8.960160621512037
Na 13.40991946754808 15.627787603208843 11.795103577335034
Na 9.83356517939081 11.728225916525341 9.332132783092977
Na 16.061052452790506 13.443582625613296 11.596910222057998
Na 12.986100885949794 11.292999045003299 11.0476231218142
Na 10.369709890038632 13.81207375493086 12.007139056114216
Na 13.34039272352272 12.815704563100102 14.047428665901158
Na 7.390055313157526 11.603569763620895 11.931445405218447
Na 10.134869053075212 9.259957979378502 11.761799222603967
Na 10.105046448080419 11.38156370850409 14.367468155006591
Na 16.021779989300885 10.503808448132379 13.3298094348451
Na 12.846506912802784 9.135852228006447 14.140922077393919
