14
Energy = -13.06055217 eV
Na 12.52496766536823 15.272277548555058 9.929452087875374
Na 15.010103223253054 12.511760617668067 10.14035801568242
Na 10.904421820896692 15.546766308380555 13.184159840179895
Na 11.78725215786024 11.805204291994121 8.583751531743456
Na 14.488575616832263 14.86159442459224 12.972802273517477
Na 9.239543748766328 13.61265596103621 10.475316344285705
Na 12.10263249527165 12.431061747781861 12.004078860757676
Na 11.667621784650315 9.539281011941755 14.166825882243607
Na 14.956930872452771 11.143382608501252 13.53117523091137
Na 12.405487561517003 12.97422660465429 15.406563556209449
Na 13.333755020365444 9.23421368070261 10.787739074349997
Na 9.159407321089136 12.257774734299055 13.872614661531475
Na 9.646400291568918 9.94326010667862 10.998568446453993
Na 11.025563422722788 6.863927859600624 11.986455194153493
