11
Energy = -10.02863306 eV
Na 8.779398246486714 15.45402577423135 11.308925873326992
Na 11.510877028796443 13.105040026015283 10.172411384549893
Na 12.074038068813369 16.218722683259916 11.908621615544343
Na 14.123492324711624 13.349492768609146 12.538895112626639
Na 8.282977558694288 12.055580470521166 11.454072813660048
Na 14.12161328136895 10.689823664116494 10.283623149715586
Na 10.800192714848261 13.351144971574863 13.704479805288296
Na 11.234426071108397 10.195219081740698 12.152830025932024
Na 13.1659934859567 10.99635439767897 14.928185788681173
Na 14.039771001719215 8.08052402121767 12.867123667585911
Na 16.335878841297426 10.575790462318963 13.178195303439423
