14
Energy = -12.58872925 eV
Na 13.168678737972556 13.627672336355573 7.0693083738410785
Na 12.939051499076129 13.906430340844135 10.585958430824384
Na 10.313257137765763 12.253583830083238 8.522899327158038
Na 9.628959960721886 13.26012868099027 12.032448289458493
Na 13.538016396801332 10.65897426128658 8.86230379440229
Na 11.649419160313954 15.731148964121198 13.500158674846237
Na 7.781907867431445 10.51587372504382 10.607469009091773
Na 14.640024395977767 14.243166855959512 13.825619395120771
Na 8.798158996182634 10.365339443854744 14.264228645854828
Na 11.716909241352862 12.370875866105253 14.899107411185014
Na 11.018130962917647 10.214302166982765 11.48523450000141
Na 13.314303315104086 7.779631889530647 11.18962571765128
Na 14.143739718717342 11.025357631831763 12.50677628576326
Na 11.981764922564986 8.795345285820835 14.601560282574772
