16
Energy = -15.47082451 eV
Na 8.564359076277293 12.612625315719649 8.60375692097838
Na 11.948741587575823 10.51479026533572 8.437633075456944
Na 14.592000021969634 12.670967859005174 9.172817849958244
Na 11.70061848730478 13.710268847342274 6.992752789189008
Na 8.593455999232265 8.85695792383101 8.819871334684954
Na 6.177653322515766 10.620265705862204 10.623826287462055
Na 14.987047648133208 9.081600165044934 9.70060615142482
Na 11.334099343171749 13.60954807531317 10.567530583521288
Na 11.935063021699575 7.807273028669985 10.599590621488398
Na 9.713095034992039 10.56794313513748 11.38050246629972
Na 13.440769827329616 11.13065424990437 12.162986282410886
Na 7.811059486077173 13.537518637343474 12.024996600178248
Na 14.365348412448002 7.894469107330334 13.153945780815802
Na 10.584876301674191 12.515963643476256 13.927745906851435
Na 7.595886878551126 10.452760413353646 14.08826981749547
Na 11.127139437702413 8.887607513984502 14.214381418438993
