11
Energy = -9.34452378 eV
Na 11.116258818179851 14.735437189371103 12.101432148109437
Na 8.410135349008392 12.564026799771092 11.724508333473468
Na 14.086136346997998 12.784918007420005 12.378942817323692
Na 9.596298820724018 9.289022602490858 11.746612965677462
Na 13.064921640661433 9.379078370276998 12.153284129374256
Na 11.304054975801407 11.756951639717817 10.163062128098762
Na 10.87347473618208 11.619688192125265 13.855728361704703
Na 12.698583288428999 14.162397429506226 15.15537682669043
Na 13.923005546511197 10.89474334884106 15.181692628483054
Na 13.367578469744414 14.356562945215552 9.455193946729741
Na 14.554156621915688 11.082895162981194 9.479461559038203
