19
Energy = -17.8657818 eV
Na 9.01060754939077 12.711406962887365 15.650127674355044
Na 11.906704913519974 11.57791477067184 16.956506020058207
Na 10.184590727865626 10.706232401775381 13.206698708377687
Na 10.201412163074835 9.30996205027706 9.9376877470794
Na 10.149222917333562 14.17219956538314 11.457341044279307
Na 12.5281830402139 7.918790805123245 11.836439027175441
Na 12.286657662424359 13.495366016826372 14.109853273234975
Na 9.613740294452251 15.757750720258235 14.513972949523701
Na 15.061042539542319 12.501610764630659 16.307678671391532
Na 13.578865686226694 10.052057521743375 14.20642732398744
Na 12.293526522049323 17.134141588690145 13.22295956549052
Na 9.716455346505892 12.367849952967882 8.665746587643335
Na 14.92463724525644 15.569284719317277 14.778245920619414
Na 15.57694172780806 12.577121333350552 12.837213105241362
Na 12.60947031968952 11.590455937938263 10.939555476575238
Na 13.692414766338386 14.993594554173898 11.055485029264824
Na 12.826384466568832 13.416011688586519 7.994836518523014
Na 15.36072074436272 9.515646075565988 10.87312018470215
Na 15.77705181452419 12.563140017807433 9.358655290548416
