14
Energy = -13.43913654 eV
Na 14.217893879083457 11.302916517818476 7.2848936178480574
Na 11.556241288918288 13.655466637655366 8.38919915306451
Na 8.486397778178079 11.906807852773943 8.827605164755518
Na 11.363836324383723 9.969386704320808 8.964552822334706
Na 14.472794789126667 8.587181867282885 9.752112052958335
Na 8.653559932799332 15.166379101584551 10.145991956368947
Na 11.597916480586374 6.706176108175541 10.79725876594163
Na 8.706725689244271 9.187035855476102 11.052986975457697
Na 13.658086863698335 11.948752456011972 10.699422177611341
Na 6.878418638063472 12.506220916097323 11.973289944072162
Na 10.374052949275287 12.477111785413022 11.721992900811976
Na 11.997412596563835 9.53025399590582 12.633483881722812
Na 9.642959903868443 6.955212483997309 13.773010402423436
Na 8.642348884118835 10.349743715395277 14.232846182537257
