10
Energy = -8.72102322 eV
Na 12.931876335884581 10.059858315483009 10.515477287491839
Na 10.815996516123821 9.850843094577854 13.21714233132932
Na 10.222076271158153 7.494867650886563 10.493918304415772
Na 12.567510114095375 8.146729010817769 7.8305051062725886
Na 12.424053283337138 12.187841547126782 8.024264627185808
Na 9.53140579849631 10.038753029330428 8.352160526874332
Na 6.791360634128018 7.8406980677808535 9.284208638830409
Na 10.034651071124694 12.405269666098349 10.724115342005234
Na 7.672621420167682 9.798048472686938 11.803775520882269
Na 6.628051620243469 11.911417919529953 9.483159621450822
