15
Energy = -14.34410436 eV
Na 12.827308504879316 13.765965741453801 7.041693983225435
Na 10.860611338869344 10.667948021776594 6.415856425911496
Na 13.699385148191476 10.603868286623403 8.484122777102865
Na 7.880500632416712 9.965469648822161 8.199575992165228
Na 10.576150973250334 12.453217376028395 9.400535899785483
Na 13.708116488717886 13.671884950751611 10.50990294339839
Na 10.791996540141806 8.781338314878806 9.634618012133718
Na 7.425305028090962 7.701584226252471 11.092157806234956
Na 12.817790970382974 10.38644197027122 11.901646728563444
Na 8.423608212912502 10.966688424524357 11.598011227167422
Na 10.806418440991605 12.994433223647716 12.987013170126815
Na 10.218591721234938 8.397775159591733 13.243814410289142
Na 14.303966680247449 12.918026433648633 13.977799523072667
Na 8.513319284464318 11.05958885744972 15.026948212148904
Na 12.06279193566108 10.581631264732092 15.402164789127365
