15
Energy = -14.21567013 eV
Na 7.927895103194275 11.128270279399734 8.16293464430129
Na 11.178208493142614 10.203839842871274 7.05152400083832
Na 10.744413145021541 13.357684801187037 8.754198240126772
Na 13.7084233976796 9.606968465676516 9.635753069001128
Na 9.139817094301694 7.816282499909138 8.961630209909684
Na 12.33276402968978 6.970594633720996 7.461343546781963
Na 7.32649591553449 14.263932920802596 9.520050130479074
Na 10.569468439182383 10.46784100019727 10.676558939375061
Na 11.977124453220021 6.759396121381528 10.93112842733031
Na 7.464418618013758 11.368354430265397 11.771178634475948
Na 12.884897692587892 12.567755485593553 12.020783110336211
Na 9.415105782529812 8.213076426994752 12.945169867427913
Na 9.679001808054938 14.145078919486926 12.106820187918258
Na 12.936931796320815 9.1980725082947 13.243722582495653
Na 10.219006342994215 11.436823775686953 14.26117652067064
