17
Energy = -16.20263767 eV
Na 12.005073163701312 13.134336184469108 12.689477030043124
Na 8.442762836298686 13.134336184469108 12.689477030043124
Na 7.254963730681787 13.179947891605707 9.28475595170504
Na 10.223918 13.163627593477809 7.086465865916576
Na 13.192872269318212 13.179947891605707 9.28475595170504
Na 10.223918 14.88246431225736 10.171684371266716
Na 10.223918 10.223918 13.56872708141907
Na 7.097543424104982 10.223918 11.186255258356006
Na 8.404512776792044 10.223918 7.726068251177531
Na 12.043323223207956 10.223918 7.726068251177531
Na 13.350292575895015 10.223918 11.186255258356006
Na 8.442762836298686 7.313499815530891 12.689477030043124
Na 7.254963730681787 7.267888108394293 9.28475595170504
Na 10.223918 7.2842084065221915 7.086465865916576
Na 13.192872269318212 7.267888108394293 9.28475595170504
Na 12.005073163701312 7.313499815530891 12.689477030043124
Na 10.223918 5.56537168774264 10.171684371266716
