11
Energy = -9.72476364 eV
Na 14.928163738633065 13.413596436186184 12.095324281134125
Na 14.225431386790481 11.13303889549038 9.24660029721309
Na 13.64653530523692 10.251576065814374 12.73794697889607
Na 12.171899750537177 13.02237025566053 14.261152568721789
Na 11.40217119474322 11.27749596678901 7.205421261255656
Na 11.672803378710574 13.10933161286824 10.556852458518042
Na 10.504154684560701 9.771374305900153 14.251590621075223
Na 11.081273175664464 9.614725718411403 10.588290779778566
Na 9.06521813278282 12.52407869819051 12.666315128227852
Na 8.555194640766505 11.589303267149782 9.195214691093074
Na 7.786997233511992 9.345868804988386 12.046865598677844
