15
Energy = -14.30110426 eV
Na 10.811942233428418 10.099105665730775 7.037615746346552
Na 10.024040958401553 13.370151375988844 8.189394507722957
Na 13.495701657939744 12.388654968422141 7.587141141331599
Na 7.33728836559736 10.892084482620273 7.958463319472641
Na 13.340416722217048 9.529715772123996 9.635414193982234
Na 15.786631896467302 11.999815325507786 10.380632612869112
Na 10.294307744069163 10.775683688950414 10.334999126860467
Na 7.828866747764958 8.44374961243436 10.687812613568726
Na 12.536561118129177 13.333896102852718 10.784153895980989
Na 7.279519207086136 11.867885888401293 11.463759304256051
Na 10.253661384331052 12.127484237694615 13.47557691021474
Na 10.985200523033367 8.285369913800174 12.502386225632328
Na 13.598173396856177 10.709572506707108 13.056843312823151
Na 8.094528160057363 9.49164527277328 14.106053882004304
Na 11.299944205048696 9.651969506419276 15.766537527362267
