13
Energy = -12.10425854 eV
Na 12.159204582259365 14.321028605824752 7.112335375734161
Na 11.181124483153905 8.076017676518719 9.280874320541793
Na 11.067312973490338 11.667291950658772 9.206710376816488
Na 8.131208947188698 9.670161453801551 9.612803684310364
Na 14.196159640103156 13.314266875108311 9.786140410895202
Na 10.73910796214471 15.11621906557591 10.206448132807454
Na 8.684016646933944 6.578026054336459 11.395999322471479
Na 12.03660449047817 6.637483128090753 12.440245361494965
Na 13.62861444910412 10.092631038106553 11.187963685844935
Na 12.136218586968784 12.991087606826092 12.604642831573484
Na 6.978229720785447 9.214877259241744 12.960103794207702
Na 10.373167900837784 9.661634801816898 12.473906605178476
Na 8.696320211890258 12.666565079432324 11.739116693462027
