19
Energy = -19.0973738 eV
Na 10.832240828250006 8.724792518945423 15.652495864209419
Na 9.492298292839205 13.778883306505964 10.631309
Na 11.625811441066794 10.911197390597575 10.631309
Na 9.985793307213868 11.6603657193457 13.63855995095443
Na 13.818223511333448 8.151351695571613 10.631309
Na 12.721160166172687 13.753861035546896 12.411427606408626
Na 13.366706222373699 10.266838431741377 7.65421180897899
Na 13.366706222373699 10.266838431741377 13.608406191021007
Na 15.087191523894466 11.704176866694047 10.631309
Na 12.721160166172687 13.753861035546896 8.851190393591374
Na 10.639289565798872 7.851772695004123 8.880775378788943
Na 9.985793307213868 11.6603657193457 7.62405804904557
Na 8.230833547937962 9.901285998497494 10.631309
Na 7.601825310925814 9.057335656983113 7.3167040161854215
Na 10.639289565798872 7.851772695004123 12.381842621211058
Na 6.723241066190547 12.459021688038655 8.78272154833304
Na 6.723241066190547 12.459021688038655 12.479896451666962
Na 7.601825310925814 9.057335656983113 13.945913983814576
Na 10.832240828250006 8.724792518945423 5.6101221357905775
