13
Energy = -11.38768974 eV
Na 14.871834003303167 11.741221726963396 13.729410350169669
Na 14.70592981823455 12.733789667555758 10.182214346125019
Na 14.410466535081246 9.39917695854824 11.111506497586557
Na 12.96610038978303 14.524737481893888 12.770052314023882
Na 12.49278716994323 9.16678275966668 14.232898667436931
Na 11.57645509628713 12.351725319484695 15.271674702374723
Na 10.84295240214577 8.404269804242583 11.004827314792363
Na 9.141267943270703 10.089202720034715 13.599246809663253
Na 9.312920561307061 13.461157612013352 12.745939832996747
Na 12.264328327483017 10.46712875825595 8.516501274700968
Na 10.40783467110036 16.39885745151671 11.331062047423714
Na 11.361023340894748 13.708085470104821 9.416872943594452
Na 8.93743272769779 11.156178067275079 10.039174264879753
