12
Energy = -10.49799545 eV
Na 12.422734753399059 15.754604013254278 10.694676
Na 8.966617246600944 15.754604013254278 10.694676
Na 10.694676 12.713222236183721 10.694676
Na 7.169267815041404 12.729107319810186 10.694676
Na 8.94570930064176 9.6854708701687 10.694676
Na 5.448672365907772 9.662065455316014 10.694676
Na 7.176472586327167 6.667709217041297 10.694676
Na 10.694676 6.624976263556923 10.694676
Na 14.212879413672832 6.667709217041297 10.694676
Na 15.940679634092225 9.662065455316014 10.694676
Na 12.44364269935824 9.6854708701687 10.694676
Na 14.220084184958747 12.729107319810186 10.694676
