19
Energy = -19.03007141 eV
Na 10.363223240326883 13.573541733064477 7.902887457121896
Na 11.427157066284874 10.238001105661931 8.015828860881323
Na 13.818075608927472 12.626392207887847 8.096653454294868
Na 8.574846202806125 11.160181695355401 10.177282548892933
Na 8.852944018048191 14.687765645809682 10.896828554585337
Na 12.351820953802045 15.050419115378816 10.344509988987019
Na 10.624320458818492 8.058562648133078 10.525745389589318
Na 13.973828419908754 9.37678552485129 10.415683235428087
Na 11.595940774348247 11.654019842800762 11.786512364259005
Na 15.126758088175757 12.691997169096194 11.268013624106294
Na 14.431432887521064 10.395313426125172 13.892523692675542
Na 16.743273444756436 13.065405445748507 14.324858639887175
Na 8.095881222269757 12.449861402090157 13.563527676378442
Na 8.692874664062343 9.019867589004303 13.315055919929073
Na 10.87707617705024 14.609820432232453 13.83499435785445
Na 14.269528630617256 15.474632421203516 13.224663396997292
Na 12.058709517064038 7.932801971137872 13.60514059331196
Na 13.455651398953487 13.203238023587136 15.713621224646786
Na 10.868873196644593 10.933608571217023 15.297884990559085
