14
Energy = -13.11593956 eV
Na 10.073464895697416 10.591055428015592 8.364299334758579
Na 12.366802548754281 12.888147676872814 9.842733935170102
Na 9.668584502845537 11.826809074308757 11.854396800090356
Na 6.847198712913271 11.208013592744049 9.762626994014058
Na 10.766949910424957 8.973878291929404 13.982111699152647
Na 11.1074959488178 6.038951412523851 11.898734568200064
Na 12.27725746609467 9.440426422123902 10.89247307573026
Na 9.626001800600225 8.773742106516924 5.341574299667797
Na 7.434202942984399 11.58491236971237 6.261487346290278
Na 8.982309523101954 13.903926253057774 8.776053982378434
Na 8.231243751462797 5.1906521944162245 9.859865237959886
Na 8.680189932669478 8.500884779567441 11.129170012587457
Na 7.244466737149643 8.202714333643314 7.894878131415921
Na 10.704525312369231 7.105538051348024 8.350756996219035
