18
Energy = -17.07071623 eV
Na 11.94024271063885 10.39711270250458 10.677262330548867
Na 16.682035763522368 8.614115808690407 14.31412835263633
Na 15.493068355898254 10.575033193158689 11.54003576425832
Na 13.150661060301715 9.47554105875965 14.104273087056312
Na 18.669510473744207 11.267768118728908 13.091508130986377
Na 14.024591277198288 13.150808081166897 9.383617524839575
Na 10.654428896778702 13.884314008550918 10.761313240002229
Na 10.103562847962277 11.523525835456535 13.660048159156402
Na 15.90245850131299 11.909661434754655 15.08569685545283
Na 13.282955009884788 12.877826414912569 12.874294277443454
Na 12.61045382002773 12.339596759538543 16.348429331497112
Na 8.323139888347882 14.553893696385236 13.452440438312731
Na 16.59142775409312 14.021487310370901 11.961834428345266
Na 14.908939460780283 15.31001312082715 14.950383023586417
Na 8.88092821009456 17.444747805012728 15.447290338160817
Na 11.426355053082817 15.20102151486988 14.72051257074224
Na 13.58658933119514 16.135690483261627 11.505715946703504
Na 10.282189080106654 17.19406667545439 12.185057136424179
