11
Energy = -10.04650021 eV
Na 12.570997653604596 9.859676106384166 6.223189964449235
Na 13.60976793255535 12.299228447614476 8.648086230351042
Na 10.253886402501195 11.454923281830906 8.40959809602733
Na 9.781305597619722 8.056313065543327 8.145311310621869
Na 12.799183180072317 8.986284632880219 9.639814739835472
Na 7.606963129764911 10.07733916920641 10.205039054898124
Na 8.89801297574931 13.267296565838574 11.055558052919716
Na 10.109082611595202 8.239276215494247 11.780662187719495
Na 6.687275983907499 8.025831359660048 12.92064825890355
Na 11.72014513318385 11.388521666195834 11.82779094086608
Na 8.494871990782256 10.87680208068828 13.675793754744138
