16
Energy = -15.45176531 eV
Na 10.844186644307422 9.599551180073359 6.946769888342258
Na 10.143004880161966 12.929005628439901 8.398623485350617
Na 13.884326785650854 7.946053621714056 8.172083802541929
Na 8.842133779541067 9.793625959233552 9.778656289336489
Na 10.725946401089928 6.979884567617746 9.411255225557182
Na 13.090293404776972 11.11767270222771 9.276624254311606
Na 9.640017489224025 16.269343361810606 9.282174945734486
Na 12.085516700484568 14.616882629137189 11.293932603606581
Na 13.234813439906388 8.537278914924503 11.629514389971234
Na 8.769982704887468 13.97447881858457 11.990240180768588
Na 11.406795184492784 13.665150309870059 14.688766519860774
Na 14.038779235276216 12.133930867164503 13.047625992000519
Na 9.993411194306372 8.067413497481507 12.757607027908104
Na 8.719152147320326 11.385472798207996 14.481394525912094
Na 10.970121400290253 11.316718818874854 11.969619307840095
Na 11.989243775143004 10.045261491497026 15.252836727816891
