10
Energy = -9.06670712 eV
Na 8.613528315563698 6.431627673836675 7.5247031971665415
Na 9.945283236685059 9.659929364542437 7.514443148724391
Na 8.254516626869226 12.416808559889017 8.901926167074038
Na 7.092283642076736 9.01203358543898 9.439235205066938
Na 12.762577146050488 8.702166716357972 9.2216298665553
Na 11.59435124292404 12.014801894648969 9.659394397776806
Na 9.881657572817696 7.715397353382734 10.825833610255073
Na 11.371047785421927 13.509695893155172 12.824800051305193
Na 12.039631177347577 10.037473736272206 12.509672598686132
Na 8.816544776915899 10.871486745148038 11.949783280062068
