15
Energy = -13.93086569 eV
Na 9.367386190626979 13.75406863255945 13.367630955796685
Na 10.261866947470248 16.496497769463776 11.069969401362759
Na 10.192489669339619 13.335704321800502 9.6606815020916
Na 12.298705291513377 15.773073172640899 13.734428164776416
Na 9.216244100838765 10.552740437684875 11.53136332936052
Na 12.306027864969804 12.282177483419414 12.485349311231364
Na 13.439166385082885 14.706417359200406 10.329295481733551
Na 15.30820031633954 13.964749752679088 13.736248368894458
Na 12.569044135544198 10.7266530984259 9.421139967581096
Na 12.617642040673108 13.009533147456406 16.0024022141148
Na 10.366234583337468 10.529895069343572 14.982847603650663
Na 15.596928890469268 11.981430431528123 10.869746794358974
Na 14.560450651356845 10.367346157796604 14.18820960554982
Na 12.00795747001868 8.594849127505034 12.434867182948206
Na 15.13245300160743 8.549655394929303 11.047262083296612
