11
Energy = -9.93358291 eV
Na 8.291349669288206 8.461931935146508 9.078771713699075
Na 9.297684131146523 11.992637804574835 9.127495040601548
Na 11.729863278829587 9.504572687692699 9.807101836723943
Na 12.779099388862727 12.71252635517135 8.896598702824155
Na 5.936876562271634 10.777211463913957 9.991787212616382
Na 14.556361611389082 14.55688488534093 11.368448492399438
Na 14.568510393343809 11.138159251682376 11.597141444560082
Na 10.030367998295237 7.009410319055508 11.61490170835092
Na 11.280792434186026 12.812067938198744 11.986837729272862
Na 8.697963554146114 10.396178705540636 12.164919118584667
Na 11.861624330027654 9.66891200546951 13.396490352154286
