16
Energy = -14.99655853 eV
Na 15.763676489727343 13.685289979809896 11.455668579382971
Na 13.38848338110367 15.261980395553865 13.297306341840503
Na 13.781489849699588 11.944115176385475 14.906187820074562
Na 15.25280275578964 10.223053517651636 12.430666338082323
Na 14.62305091717156 11.747747441627945 8.664583031269268
Na 13.113343319741489 14.840664239106953 9.28454994313318
Na 12.60765296799867 12.320382411912123 11.631269859951967
Na 10.692277659597611 13.36101412189378 14.461066812277199
Na 11.401392844090127 9.69877797038588 13.400017594026167
Na 9.057480230107522 11.822614890122257 11.69548681053592
Na 12.942851476045085 9.16022307941662 10.154777519499557
Na 10.953043512043486 11.87852727471389 8.745023002605603
Na 10.37214500429642 14.933223800453469 11.227903642809435
Na 7.956653586439334 8.699276202134921 12.959817237108155
Na 8.29924200081542 11.088418600042976 15.250817910438426
Na 9.658826164031751 8.72372600569926 10.102317348198333
