12
Energy = -10.45876523 eV
Na 11.444015559619332 12.457198268602424 14.20712163283236
Na 14.128376561564679 10.239776245798023 12.446413357444596
Na 11.043861148622401 9.157093036948984 13.423690406688888
Na 13.38970400170872 13.556569757294529 11.485822918568658
Na 8.17895916609024 11.378095933448307 13.174726055829234
Na 9.717691313377404 14.334961610309877 11.785322243989665
Na 13.959087754508673 10.789515503969865 8.991348681035303
Na 12.424936730234647 7.828492751740651 10.377366341980771
Na 11.094781204212536 13.016174358614192 8.728983184946197
Na 8.745218850442303 8.604007334194275 10.67702769487465
Na 8.016293874266408 11.923975068623932 9.719672735524288
Na 10.695933873931383 9.710725113029563 7.962531641098032
