12
Energy = -10.94372019 eV
Na 8.10380175422071 11.67719065396308 9.065816499403525
Na 8.10380175422071 8.09896834603692 9.065816499403525
Na 7.316037557811268 9.8880795 12.039322488713935
Na 9.8880795 7.512458445039884 12.202380248426458
Na 11.672357245779288 8.09896834603692 9.065816499403525
Na 11.672357245779288 11.67719065396308 9.065816499403525
Na 12.460121442188731 9.8880795 12.039322488713935
Na 9.8880795 12.263700554960113 12.202380248426458
Na 9.8880795 13.307887575944019 6.393217987776506
Na 9.8880795 9.8880795 14.797606347709293
Na 9.8880795 9.8880795 6.326240957609725
Na 9.8880795 6.46827142405598 6.393217987776506
