14
Energy = -13.06665345 eV
Na 10.831734 13.32909329232765 10.831734
Na 8.334374707672351 10.831734 10.831734
Na 9.055672655580905 12.607795344419095 13.74705206882571
Na 9.055672655580905 9.055672655580905 13.74705206882571
Na 9.055672655580905 12.607795344419095 7.916415931174288
Na 10.831734 8.334374707672351 10.831734
Na 13.32909329232765 10.831734 10.831734
Na 12.607795344419095 9.055672655580905 13.74705206882571
Na 12.607795344419095 9.055672655580905 7.916415931174288
Na 9.055672655580905 9.055672655580905 7.916415931174288
Na 12.607795344419095 12.607795344419095 7.916415931174288
Na 12.607795344419095 12.607795344419095 13.74705206882571
Na 10.831734 10.831734 16.280530900676418
Na 10.831734 10.831734 5.382937099323584
