29
Energy = -30.06487524 eV
Na 11.825128833339841 10.46522057758979 7.4587426782803234
Na 15.210575050661573 8.921312546790766 7.927764940964439
Na 11.613724497911914 14.439477723466409 7.548894464701135
Na 12.07993630725832 7.020014783748106 8.818295738629903
Na 14.646667032610505 12.661015811595425 8.714830747740107
Na 8.500174946545508 12.428500590869705 8.492394086268158
Na 9.549619773993605 9.394879712638243 10.130775100532752
Na 16.789983144070302 10.131675789136768 11.300054040267831
Na 13.320695680477185 9.775692356477357 10.555607769589455
Na 11.426278514822256 12.709846677864503 10.301784912772193
Na 15.029413282410397 6.897938487341093 10.990592275489735
Na 13.33953077245477 15.750917350531257 10.581805889474568
Na 9.577554045940806 15.790326475603047 10.737377324223878
Na 6.118940298231533 10.359049570142156 10.009913124796627
Na 11.323837040098581 10.92851839939358 13.167045959662346
Na 8.366444859342755 15.841183672671084 14.22551090379977
Na 11.501798438110958 17.737085411407172 13.330761207479526
Na 14.486386835406206 12.810810028374261 12.319875479457668
Na 14.515899867781465 15.660082676120682 14.752513025132098
Na 8.167231732040776 12.659427308595795 12.10381970944787
Na 11.647262915003315 7.38942874200712 12.530666329150149
Na 11.398261594661415 14.398488834871003 13.383379579214479
Na 8.40767269654287 9.329887367825094 13.655059230567597
Na 9.428966358661027 12.606218805433015 15.713257093186575
Na 11.276934753377605 15.80713712103068 16.453178190554564
Na 14.544806001903744 9.515709814977479 14.028725982367536
Na 16.882547574033048 12.508207082785626 14.643981237207608
Na 11.429724776793709 9.300906311472527 15.987465818623031
Na 13.29511291140113 12.462150505128742 15.837037696304689
