22
Energy = -22.18946492 eV
Na 12.997493361777902 15.716286408944695 8.92969252846062
Na 12.981121255158028 9.581973792088299 7.855791901564597
Na 9.451858406808217 9.369022648962897 8.80575899937386
Na 11.124171740803071 12.693547463945109 8.25768166349202
Na 11.89025139737118 7.180022989619168 10.433866301879714
Na 11.898987714908213 13.8810107190932 11.658420595966357
Na 14.553602882961737 12.481392886814307 9.481560275782018
Na 15.171170787908423 8.895845583519295 10.89623110768008
Na 9.202592970260214 15.49193855597084 10.023584940897775
Na 11.949644557263799 10.555101611138358 11.038797099620377
Na 8.689521855218263 12.1231112057622 10.962877628406867
Na 6.118379751774927 14.53190092058758 11.425313622727565
Na 9.286092913445815 8.879282008726598 12.49091268045764
Na 7.1797636488289776 11.635071347413971 13.989716857784488
Na 14.7021441630655 11.740910762271678 13.062339496833017
Na 16.58710103272888 8.836634798846465 14.07043002422845
Na 15.071057364725558 15.107058802347584 11.97333018056178
Na 9.157421507546708 14.555515746353029 13.633339918320415
Na 12.777389777527997 14.20715393930409 14.92619376682572
Na 12.9137610323855 8.544347812385254 13.733222301231116
Na 10.772456593252011 11.45087066176905 14.376710183803484
Na 13.812234063039673 10.830218112896581 16.26244670286331
