29
Energy = -29.19275321 eV
Na 17.103408491226606 13.68043348945747 17.18237339021522
Na 17.303777340023103 10.308591592920028 16.632290017829387
Na 18.283288236240214 12.220523997158715 13.95144622404819
Na 18.469736935880476 15.542534958300445 14.324498556863004
Na 18.166057869667824 8.671973226823233 13.771210596566776
Na 13.635354232444094 14.133562808008797 17.914732783897737
Na 14.522032246002043 10.886270692718462 18.311398200870514
Na 14.586964591174867 12.434758703663432 14.774223920593897
Na 15.283521366424335 15.999422830715451 15.476666513398031
Na 11.860908053509858 10.681857672022915 16.033220977189323
Na 14.669439432679281 8.895898152248963 14.809000684836004
Na 16.51275523862624 17.59570633590023 12.495751103689914
Na 15.892853867767615 14.176846779871047 12.107143910043025
Na 16.04134474720353 10.636623262705259 11.877304348882987
Na 12.633935376755874 10.034020836114172 12.388498645732042
Na 12.387936260887749 17.22941114073669 16.914205225703984
Na 12.238652023914485 13.929397122484678 11.975625457667519
Na 14.216753297526068 16.417801486593717 10.163504801235534
Na 11.450277283153557 14.292235937542367 15.293882842917563
Na 12.119668108217454 14.648153717984242 8.1845625601163
Na 14.0802747907927 12.144060720181656 9.617775693079532
Na 13.177555655512496 17.35737529861347 13.382983846200432
Na 9.782963279372169 11.662361038196808 13.593928398355741
Na 9.987752414818454 17.544327397163364 14.55683386536834
Na 9.136669131254582 14.502121173122916 9.603661927143317
Na 10.647068452390597 11.38041498473108 10.051270038450019
Na 10.826137133957726 17.16899829302019 10.934233170588023
Na 8.731620215324192 14.878580751522536 12.99374522735727
Na 7.288908107751033 12.15684899852514 11.232651777391284
