29
Energy = -28.99535181 eV
Na 20.50394920607413 14.738415327465987 18.175603075171885
Na 18.144243361932304 12.334387849072703 17.439535445046612
Na 18.920534802239498 15.025920326083154 15.122382602203881
Na 18.908086512385776 11.629450192602038 14.030029562496571
Na 17.288573343818143 15.840863632471857 18.295399803407225
Na 15.961509268326875 10.337725300251817 15.777227601165157
Na 15.632329733993997 16.463923779330432 15.160051466287737
Na 17.38762153302792 15.933286510234437 12.182493469310744
Na 16.563360080083825 10.302400635848194 11.87631116238437
Na 14.840236160480321 13.44314606092072 17.275093437763996
Na 15.829348078237185 13.200785932244582 13.838522753628547
Na 13.81788819873419 8.86964354860792 13.42578872388291
Na 16.100194878032344 13.337185427701153 10.211059803678145
Na 13.977504987088547 16.72353778420355 18.227103770972892
Na 15.974313255320453 16.714032548373574 9.120457652228808
Na 12.711178634899689 11.604007028189786 15.326720678047016
Na 10.688863750739126 17.893710517726127 18.100242649805324
Na 12.509305254978472 17.824480668005094 15.058499450968606
Na 14.249028594108164 17.547177804464052 12.106142346282354
Na 11.619508537965286 14.47388277818025 16.99789491501624
Na 12.75678296761784 14.626238438535486 13.595556118846913
Na 13.023470315885088 14.935479011526754 9.979928883716202
Na 13.3806801862663 11.80988421425577 11.571934020526719
Na 10.669774023974213 10.111598944155748 12.828409774465413
Na 9.318454800725986 16.338418314191347 15.293060576764786
Na 10.835009939991265 16.955247459991533 11.936806891555436
Na 9.64181553025675 12.977043024279173 14.489606852510942
Na 10.288009668674752 13.260800406488633 11.004089904452163
Na 7.823964408430718 15.296916236956214 12.367448147636663
