27
Energy = -27.78887711 eV
Na 8.898622554917365 11.870930080406684 8.007362788816225
Na 15.931137060526062 13.060172277689453 7.795042864539616
Na 15.617892616108202 9.628070888710743 9.093541749779524
Na 12.450004195981595 11.987274775250544 8.901900857321339
Na 18.505287075028978 11.531602065805089 9.953773341195518
Na 10.0602274880611 14.535827152245085 10.00425230307462
Na 13.761446625139621 15.390325676826004 9.949079503641075
Na 17.413031312616678 15.057777931115199 10.43126845200588
Na 6.709732345092237 12.622586150672815 10.90136796135406
Na 9.735532556303575 11.011168094843518 11.26728988504411
Na 15.325617428842994 12.39341341043889 11.133730935864406
Na 12.887413591196108 9.58449230801024 11.751967753404346
Na 17.99059146374541 12.766317807129013 13.262632353741681
Na 7.376820218358397 10.920669838396213 14.052353566788147
Na 9.917011567520218 8.196836802961148 13.50691157705936
Na 16.31829194850246 9.463113042503963 12.709401438332982
Na 8.920389627989465 14.084968711033296 13.441513385505646
Na 11.568965788979655 16.629803056738805 12.836685048084384
Na 12.234984595125852 13.25811999407263 12.391040734198386
Na 14.970136370787369 15.34917366124487 13.41678319386892
Na 13.346254582051094 8.590240963013523 15.048348161690196
Na 14.611605177014704 11.937082795759377 14.832064043069508
Na 8.981790300833516 9.429969741697414 16.820474307391077
Na 9.262812000956043 16.576365749373217 15.864115144447743
Na 12.180058949176738 14.548419436123314 15.712853227007342
Na 8.743813352777458 13.105088453233853 16.860281335918025
Na 11.05657418663858 11.246234114977446 14.830009067126483
