28
Energy = -28.68506674 eV
Na 7.966017251223461 12.000727496929462 16.228717547667895
Na 7.572923787554279 14.958669689457125 14.366128870349208
Na 11.438038827635589 11.390077777215 17.08318784945288
Na 10.155635308635471 14.781531637499535 17.027354925607185
Na 9.757616781892098 9.469446629422384 14.587470539323952
Na 9.953541548153979 17.613438751525624 14.804562187496863
Na 15.34916781525844 11.077061917510292 16.799106117976677
Na 13.577058793994123 13.896655504993483 15.65525773926192
Na 12.766745344830793 17.179284123364607 16.75876709229895
Na 7.942399570149838 11.850455104839032 12.44593533091809
Na 13.287850350073745 10.307552373669276 14.174490269375424
Na 11.176169549670883 10.234781287217352 11.357738005947269
Na 10.757136344326188 13.17029125678158 13.76521325601978
Na 15.93709695682437 16.579089605931753 14.860015902792965
Na 18.047435767329386 8.531417977245413 10.586506762268534
Na 10.313837036273913 13.202930335047478 9.939338788355558
Na 14.660784263446107 9.345598024998923 10.813682250083646
Na 16.857475956898988 9.745425504075609 13.651405783733624
Na 13.883407851602218 12.924285414121524 11.795957308231012
Na 12.912617720147637 16.29081691013165 13.120468636056943
Na 16.70472735404425 13.212881024959184 14.10168961272636
Na 9.689190515578877 16.102619343018244 11.68914721717368
Na 17.60974783236734 12.06876976827204 10.89898838621624
Na 13.183678467440997 11.67132803349449 8.48933631396351
Na 12.957891817631985 15.577451783254459 9.59073641288979
Na 16.46076147316786 10.377178693030737 7.919818262896001
Na 16.284616180117503 15.650718775347876 11.420835283664882
Na 15.993967463001852 13.892233315464477 8.413409538727546
