24
Energy = -24.08824043 eV
Na 14.091953907552941 19.2323629543325 12.490577586864237
Na 15.578087370722269 16.911932146151436 10.204187356499478
Na 15.94779588359795 19.328394781230216 15.645250140457627
Na 17.802855865363792 18.93339114154559 12.433334298036891
Na 12.792808091568707 17.426359918200905 15.374082499635122
Na 12.589212010247147 15.868194441107178 12.090148421673225
Na 10.640835309931399 14.519299708185521 14.940099653406666
Na 12.178186129272774 12.24510734357491 12.638391593637749
Na 12.369198165187926 11.515586840156166 16.302958874739275
Na 12.645254280760064 14.833392559495303 17.987866736563664
Na 13.933732601609506 14.033912206816842 14.833650413142049
Na 15.339554531359486 13.592922946296875 11.57359502694187
Na 15.83623614131702 15.989339094909925 16.866687612651873
Na 14.051808306187239 18.200778881992882 18.634223185490683
Na 15.777707838607997 16.54749790399396 13.515646161185817
Na 18.825904279705252 17.031745011472886 15.33929606510241
Na 18.53945500414668 15.372420871694846 11.914450792077062
Na 17.68210661299726 18.120607821229036 18.64291149216185
Na 17.67084941435017 13.621095369341921 14.899912573857584
Na 18.169185760854724 11.800771581824884 12.100723990727852
Na 18.592379495124835 14.65221596972342 18.17508512909538
Na 15.589888235789097 15.27645903622176 0.38061787895429117
Na 15.555189658356564 12.569709481239853 17.655811960235663
Na 15.343921865261017 11.006742280849034 14.178121707263879
