20
Energy = -14.89069757 eV
Na 11.769924072788243 11.266679077697404 7.464577061277758
Na 13.59784091040132 8.397276758080471 8.454135670009082
Na 10.057548984135929 8.256686295131045 8.514581443075093
Na 10.166587730709798 14.298885923392442 6.734150950567468
Na 8.22828193557426 11.150618370489575 7.607792055331277
Na 14.827307436164949 11.442850744075882 9.448268359252056
Na 9.022192768423228 13.644672767587561 9.97306123159982
Na 12.51568125988637 14.075130286350657 9.522055485140077
Na 6.600831947581418 7.924469786629266 8.860584350504633
Na 10.937821594304848 10.759142080384759 10.928386487191842
Na 7.342040518856304 10.599575403511574 10.97822353805082
Na 14.887278285935157 8.746489228500222 11.744483652539916
Na 8.151809111801928 13.087914694333113 13.363371487306084
Na 12.133276340630722 6.632090507032457 11.009742504839085
Na 8.791905941601948 7.4527432431807945 11.737877037306763
Na 11.000751817562957 12.108787753305473 15.248353566818864
Na 13.635179516184781 11.991353407929536 12.766423009990184
Na 11.853773573974397 8.929538754812006 13.739551401742197
Na 11.180786916681749 14.589204758485064 12.729512630700473
Na 8.457653905947911 9.804364728239063 14.333342645905635
