29
Energy = -29.48832665 eV
Na 10.971704731930066 16.753152316466448 16.874849095902174
Na 14.556840388438577 10.90727316570483 17.001826661825973
Na 9.35310303937961 14.090542750502417 15.538141688807132
Na 12.763213716407629 13.792951314250194 17.245563819767625
Na 11.443159219518467 11.34603191077912 15.222364596366186
Na 13.584111934464692 8.591947168993794 14.729477715873427
Na 10.456865146566845 8.795192445952024 13.153001785900758
Na 9.343913896267901 17.224090115223177 13.724667820358807
Na 8.347143691708139 11.474920391305814 13.415028848284983
Na 12.403737003936337 14.87291534040351 13.923722406599353
Na 14.41487162754067 16.814094485264206 16.48607876787908
Na 9.406602034169751 14.489881966581423 11.79686416561523
Na 16.230255893169886 13.830890700446059 16.302549620757432
Na 11.51836443881295 11.8614418324127 11.674449081059684
Na 14.454906179656398 11.937974022888026 13.629365652853847
Na 13.155773399695722 8.893839956813723 11.065568719858833
Na 12.46274987678568 18.606624075536494 14.091876603097335
Na 17.535420381440595 10.920482358730004 14.752053125913953
Na 16.262422470216375 8.56804696532157 12.596040395541374
Na 15.692112677040672 19.535308599358025 14.855814005499154
Na 12.12532591464214 16.909448386249505 11.055161621736925
Na 17.817124115195938 16.783000274745906 15.323805091989291
Na 11.523771034061848 14.162169507104796 8.966581589114073
Na 15.286361120015599 16.963364670919756 12.73176529398002
Na 14.41754435588846 14.246936679238933 10.986627415297397
Na 17.388182359475582 14.163172472298763 12.981892991554464
Na 13.72898868399199 11.575170127800199 8.89929697394839
Na 16.729937774890427 11.593399738954917 10.883003877965766
Na 15.941952768758792 8.799488797627097 9.064467896784477
