27
Energy = -28.02530544 eV
Na 12.479701511891289 13.526045287917471 6.027784683939106
Na 15.198135837914965 14.903830105581132 7.9610881329187135
Na 12.075019098296332 16.707916753129595 8.10314291068821
Na 14.584539659087287 11.207695445143068 8.03203988007324
Na 9.4556796159524 14.146170247943704 7.819288136780865
Na 10.657194466549294 10.683901877032191 8.19125139416776
Na 12.386310992972753 13.536024099024171 9.448276600944649
Na 14.065010547347088 16.21613888054977 11.230675534772635
Na 15.564603540427346 12.815274702473209 11.190238258734038
Na 12.732202358452593 10.319497008746492 11.03098406991734
Na 10.18638947026937 15.716484071164324 11.297269337038585
Na 9.337976991511239 12.161981031622146 11.200626075284346
Na 15.824400271672298 9.119400319493538 11.141936322780001
Na 11.119599161565056 10.640755563948133 14.192913076540837
Na 9.818929335545022 8.575615322476033 11.559287747092068
Na 13.113573388647554 7.809573989734033 13.687730299483466
Na 7.739649440105944 10.338446240427034 14.04009601098402
Na 12.462390229765463 13.419006887618178 12.848627626074922
Na 9.310127105973157 13.774258341347862 14.428165577193703
Na 12.011850429918802 16.32223715040976 14.479039036381177
Na 9.91098705418536 7.791953103467455 15.571567344727402
Na 9.572322978595006 11.08191445070066 17.274219543624817
Na 15.287776178046933 14.434532845934246 14.541145828695695
Na 14.80677714375371 10.89800897140885 14.19329535143536
Na 12.903606919940492 9.434760997816534 17.045391658096506
Na 12.417596862105867 13.094234578790727 16.50185213802364
Na 15.527009758354831 11.873702074947285 17.51142777245416
