22
Energy = -22.26738774 eV
Na 7.618530161203113 9.15569974751665 10.717436
Na 10.717369832763751 10.319196770705314 12.376318609003157
Na 10.717706539905873 10.446732409467392 5.593873940216846
Na 10.717150930961127 7.151569217792974 10.717436
Na 8.86414200818336 7.822656838267649 7.540610488951591
Na 8.86414200818336 7.822656838267649 13.894261511048406
Na 12.570860181269222 7.822909920826759 7.540118179318404
Na 12.570860181269222 7.822909920826759 13.89475382068159
Na 13.79609575936641 11.298778967482958 13.707829652975791
Na 10.71748789321924 13.516914120455041 13.661898793722568
Na 7.638845069238135 11.298493958957497 13.708230973652054
Na 12.726109618080779 12.934202916312994 10.717436
Na 8.708910232990263 12.934657747290796 10.717436
Na 10.717369832763751 10.319196770705314 9.05855339099684
Na 7.638845069238135 11.298493958957497 7.726641026347949
Na 13.816387064909517 9.15649877022548 10.717436
Na 10.71748789321924 13.516914120455041 7.7729732062774275
Na 13.79609575936641 11.298778967482958 7.727042347024213
Na 10.717294559139583 15.795641747498095 10.717436
Na 16.07369343992996 11.801706267657426 10.717436
Na 5.360501173971569 11.802249362458078 10.717436
Na 10.717706539905873 10.446732409467392 15.840998059783148
