26
Energy = -26.8128111 eV
Na 12.755918433590104 11.398118150538705 6.663709782128509
Na 16.133448384712832 11.726406448226525 8.15685665528002
Na 10.22965349304303 9.997888985710402 9.675739432861802
Na 14.068834391884511 14.69736382133213 7.683475753767181
Na 11.471047401472031 17.132289682287436 8.047188556380704
Na 10.502853738020741 13.738567733162395 8.387512671416218
Na 13.783878825957503 8.852071233362098 9.245116354156739
Na 13.101442865733741 12.099658780744463 9.977277335087571
Na 15.9931728532407 14.157855003235007 10.82817357175933
Na 12.290930009053861 9.514647675059441 12.488371369146055
Na 12.619854176970758 15.560174780071874 10.955290736204784
Na 15.79857032129384 10.61713401934699 11.8152410190029
Na 9.204936603765557 16.028865361251288 10.970747577619369
Na 14.594241178059136 16.03875504932979 13.873387748591473
Na 13.43661686867629 12.878006239966814 13.208610617510002
Na 8.856879681539992 9.517809045374179 13.201314421113523
Na 10.947908239799283 15.154183590570602 14.211326073034718
Na 9.88943597053326 12.674026811455814 11.844830502334965
Na 16.643688650087892 13.062944201255196 14.392389423683003
Na 10.849412530975297 11.633099893548547 15.20534131510243
Na 14.302471201421262 10.316346950442323 15.612335024974957
Na 13.503602383564019 13.636420198411512 16.78149327448308
Na 11.264438638207986 8.31396458939515 16.08255134530391
Na 8.571850000637442 10.251701646147124 17.319955367512883
Na 10.078943955392662 13.43259266054122 17.98437407445053
Na 12.236357325989548 10.699495572855382 18.517778120715583
