23
Energy = -22.33844933 eV
Na 18.242435439091985 12.16983199212068 15.84465895006613
Na 16.949089697814944 11.379247705308218 12.728480879765184
Na 16.52844186362132 14.611226111542814 14.023479553793456
Na 16.24732671040724 14.314995890848577 17.48882431443235
Na 16.23403233561679 13.834816249918772 10.534671120061082
Na 14.690460989008583 11.779736360897031 15.63628852920474
Na 14.259175264482659 16.447323294629822 12.362313767944977
Na 14.06692714717714 9.66402875091599 12.600659995461651
Na 13.554058432636738 15.408156804722346 15.709020245875278
Na 13.575679841753258 15.074653480606447 8.932585200531662
Na 13.383852716963842 13.178479382925065 12.636461653249892
Na 12.389723744972878 8.376642899767951 9.861273634615225
Na 11.403883392479138 17.199484357752837 10.488922118381705
Na 12.176446601509708 9.587407366570162 15.606140898687428
Na 10.962570333357196 16.002859621548822 13.701572176970338
Na 13.144996134722804 11.641884741219705 9.464575219546036
Na 10.90536171801806 7.920620927431981 12.878976987569237
Na 11.236420428090943 12.846847976814605 15.423488988390897
Na 10.544245030437324 13.915237786484603 10.292409535616375
Na 8.876364397746135 10.298316356811466 14.661128195881407
Na 8.255604735250719 16.42656135411635 11.514972008905637
Na 10.628534324906171 10.963242361356343 11.722074555212378
Na 8.614987778711514 13.379449237209586 13.188049241076813
