28
Energy = -28.6300926 eV
Na 11.80137962505126 12.896352340343874 7.745544481198104
Na 15.512761330422503 12.430123863191405 8.90166270078233
Na 13.485983333891033 9.383139885351223 9.359660347734955
Na 10.281621419981162 16.034334746335457 7.529440103480452
Na 8.043706813833309 13.152349076720954 8.130289371751058
Na 6.6499389964113655 10.023660843416868 9.574892130411222
Na 9.968209998510554 10.750663098295044 10.163039351595396
Na 13.44841308505395 15.597212490406903 9.564446740544138
Na 12.941849391000986 12.370528195610637 11.109690590496687
Na 10.22239288843598 14.45759258898963 10.72406462878147
Na 15.885073891808043 10.140854794037493 11.951010029273851
Na 7.484203151472214 16.244356238423062 10.051152686053976
Na 12.166439270737083 9.273076810728705 12.583296945245813
Na 10.86364244275373 17.848780473964187 10.541998148687727
Na 14.758025901086008 6.8136135976011944 12.16767386635403
Na 15.985941087888516 13.871455076674462 12.314870303807112
Na 8.634621114449622 9.4434516621858 13.183310050416976
Na 7.321688875217947 12.792319642039983 11.697051691403882
Na 12.728724798314982 15.315813975825918 13.257687602466032
Na 10.213500050515867 12.525249963874744 13.711390766606215
Na 13.82991221996585 11.948781420016623 14.354850590998177
Na 11.876728170576595 6.593688220633352 14.58890011439278
Na 14.830886928711063 8.628981660040786 15.19495854622266
Na 17.204818925697868 11.539926717200926 15.111235187896826
Na 11.416057368890252 9.961282574122922 15.974834925776749
Na 15.491005850349643 14.582035285144872 15.88686506307662
Na 11.93089165943182 13.703272362768725 16.611830453105394
Na 14.630917593847801 11.286438580361242 17.623688765747062
