29
Energy = -30.14606874 eV
Na 6.488775203674697 14.623693591550696 13.479366818207986
Na 8.980666236889048 16.524176787851815 15.328783240234486
Na 7.945819027322093 13.260068221418905 16.620675910215716
Na 9.153636490183002 16.406111852455897 11.531505812686015
Na 7.3003052971291815 11.060858257438106 13.697848465692156
Na 8.01109379255216 12.959087282840446 10.498301429092328
Na 9.64678315139268 13.575054834918447 13.619913199390586
Na 11.573572875091523 14.148404711529196 16.632364263610686
Na 9.814289667052257 15.156567468531394 8.152912525829498
Na 12.23430468398772 16.27575397837385 13.651145882005826
Na 12.436644195962323 16.8841535555504 10.0662930155541
Na 10.423499489629005 10.278693212507823 11.901041182585441
Na 10.577889810889692 10.560003766201662 15.546342194600117
Na 11.537298793918838 13.593032425261624 10.612236888088061
Na 19.174586915853535 10.942706355698034 13.156912917851832
Na 18.17206170813745 14.401454883304204 13.475773508689615
Na 17.798379506107604 12.287519864794907 16.38223227238503
Na 17.364565499010777 12.61705317044531 10.270423688150323
Na 16.90744512359253 8.96595510190962 15.15031926213417
Na 16.575218997716874 8.967377638391406 11.325072347486556
Na 15.929336322051611 11.741163755432401 13.396559099171109
Na 15.106891508325516 14.747455418495512 15.521923775727144
Na 16.00662796722661 10.43199407360707 7.948120586154266
Na 14.90690685957457 14.834697950175832 11.769734880058444
Na 14.342337661072605 13.713252892162044 8.436774459420477
Na 13.37384781286808 8.990106355510827 13.594219545684734
Na 14.188271219407772 11.138520092854296 16.547223602185806
Na 13.695693784602687 10.815911157533403 10.49852077943612
Na 12.790495155438872 12.556416099915078 13.644703204332316
