21
Energy = -20.73875098 eV
Na 17.056274147048335 11.857704212250326 14.947716664263238
Na 15.992203395612021 11.769643932901381 11.643684406267038
Na 14.73646464484781 11.846367016144558 8.421378253266814
Na 15.517911804733346 14.615810262522889 13.641698979507737
Na 14.389271938865587 14.726699297611166 10.293901830763494
Na 14.008152397564158 17.42381012812029 12.418717878643324
Na 13.942079898296768 12.646350293860982 16.138368462990243
Na 14.375672264788662 9.842840163679531 14.021870372122548
Na 13.31853876611125 9.614813320839076 10.690323677216849
Na 11.86397665815687 9.870804978651762 7.6012244082211655
Na 12.314224405377983 12.496965348609 12.85234297446414
Na 11.511261058816185 10.011759212929837 15.939897087288726
Na 11.28257950754198 8.29494766438208 13.051407060805829
Na 9.725865215988987 9.9169455324558 10.251237360362921
Na 12.311975464993202 15.618141381557466 14.798876081904767
Na 11.521756555958254 12.871097520771276 9.237221095188971
Na 10.484883155859254 13.141548784148034 16.558878157996077
Na 11.227278233953104 15.582542475208896 11.43450167542836
Na 8.55847520829469 13.256375491414639 10.837658326932832
Na 9.171046255137037 11.062278039665921 13.513602585237749
Na 9.032502941151476 14.571404891003624 13.899273661485692
