21
Energy = -21.3645231 eV
Na 7.8118609083389305 12.265421726901732 7.762725912854446
Na 13.742356246613127 13.659513531766073 8.26780774933082
Na 11.119139462875513 11.224630415209512 8.056472122371984
Na 11.854836682166452 7.767431375800618 8.688675894075768
Na 10.25391665541798 14.615321241545479 9.12853203817014
Na 8.507257796603094 9.120916213008758 9.526368829808124
Na 14.307298635165294 10.319722107694243 9.714433340601818
Na 12.24470625242691 12.813697872872376 11.28464481392459
Na 8.597418236619768 12.255901490152368 11.206737207749173
Na 13.23169726966636 16.141334204930192 11.021141561734012
Na 14.182699561079781 10.61841527615973 13.394919387119856
Na 15.686748617390249 13.300238184869194 11.360921348805313
Na 13.78636699999817 7.319454767909012 11.789427115512138
Na 11.25370268696999 9.696474416605518 11.513676632239177
Na 7.591036594226278 12.810485267066666 14.557611623762243
Na 10.122081399643243 14.937510502234995 12.9731006436642
Na 8.376843382521084 9.436166394514741 13.364413287395958
Na 10.131026402688253 6.409367756913476 11.743698511076538
Na 13.527938457952928 14.165407208019003 14.218005336187222
Na 11.661839370008394 8.249346015539519 14.648630672801733
Na 10.895915360135158 11.759931008793743 14.664742949322019
