20
Energy = -19.79314679 eV
Na 8.033069418180473 9.876862746120764 7.460982712969499
Na 10.359480691181815 12.682472593005025 6.68352983784385
Na 11.578509793883669 9.558022468428318 8.070211544144037
Na 9.406392724122417 6.641934288565298 7.854335085615644
Na 9.373992397141155 12.361450857936397 9.877723721932162
Na 14.350522798893266 15.641571260565547 10.807791565187008
Na 11.963799456466194 7.006255016996154 10.667202430910521
Na 10.878803306156167 15.551082390620008 9.146823744456567
Na 8.909576777026691 8.851983933460868 10.732003516682601
Na 13.152023032732496 12.735746623831542 8.977399904816977
Na 12.058443642993753 10.484677501165255 11.369717090945658
Na 11.575850688977441 14.088024292472864 12.216673356354635
Na 14.912617185596911 12.467547752920632 12.187216957623358
Na 9.271870695384974 11.512556373955357 13.337493088177503
Na 14.067613880314859 15.360103295249324 14.460498778060426
Na 14.162943450420164 8.691358452340486 13.372760135543091
Na 12.748448718942962 11.547932528278388 14.79478749945873
Na 10.658186069542387 8.266520698482784 13.916079668611461
Na 9.85263725240884 10.578647175530014 16.584614087310126
Na 10.867112768597847 14.277144499039977 15.664050022320799
