21
Energy = -20.88390596 eV
Na 12.593979276315382 13.864376854271963 7.72116495727485
Na 11.574673338732394 10.285054864207467 7.381520815691608
Na 14.993877951543475 11.32089973050574 8.00733062003942
Na 9.42805518168366 12.69067329279189 8.97015611585324
Na 14.92570919803511 14.24740991778305 10.568652769409884
Na 11.497646440385473 15.128533008207521 10.896393412683214
Na 12.436303397271676 11.634416903752772 10.474410527039804
Na 9.80262778392377 9.456325628380064 10.844077789308416
Na 15.699945977746989 10.756822547031991 11.549513121435732
Na 9.379610834829608 12.642229320165516 12.552365973415473
Na 16.804861800793862 13.54898104287896 13.43237207004566
Na 12.945264096631979 12.915666674023706 13.668427999545335
Na 10.249525798063225 15.724988541708312 14.10333073799966
Na 14.035434276006772 16.084933850421514 13.753590778743243
Na 9.462855545444132 9.732583243872673 14.473350613168536
Na 15.543901187738882 10.539423228843324 14.990500594004578
Na 12.687774854943388 9.296122548238694 13.17034343044351
Na 9.141896332476463 12.949105576197221 16.049557437490503
Na 15.176454825640091 13.704202185973573 16.529142344833147
Na 11.987854031922469 14.90010282459109 16.956840908404892
Na 12.1959047182891 11.141305064570691 16.471113831587175
