28
Energy = -28.90730392 eV
Na 13.457601268970755 14.67265662507875 6.0609787870612
Na 10.64032062873115 12.99379225996404 7.541845272916899
Na 14.127280779077097 12.605848895217747 8.759980045188597
Na 16.12761203142107 15.44936584348947 8.307917403691528
Na 12.210689846433633 16.344670055412323 8.846830308098337
Na 8.752188346741518 15.383361650603455 9.679741610592732
Na 11.685306301779107 9.91494033717889 10.073247355023968
Na 8.36141078926584 11.89330348577415 10.397801672039842
Na 11.38722011311402 13.406690220516229 10.859553692230111
Na 17.204011539892385 12.933299434236135 11.07848354254295
Na 14.5241845513117 15.255538421011627 11.52446055732423
Na 14.196684936731971 11.47302282492596 12.049122129586738
Na 11.233875137847674 16.777290488664196 12.21987740643263
Na 10.439765868951637 10.639503194751185 13.292986846047445
Na 13.237122173953036 8.343749047982152 13.212691819174943
Na 12.41774432845169 13.846809947909833 14.059785269307847
Na 14.01906603382566 16.781438933325497 14.787189372330113
Na 16.09216004555786 13.747583343289651 14.506158451285867
Na 17.01074281178054 10.436523312973803 14.122748751132743
Na 8.889570934194102 13.906318705543523 13.38478931994457
Na 10.65344271579113 15.99374742397751 15.977765394309905
Na 13.63573239506367 11.07089828971618 15.430330796578481
Na 11.155847859916587 8.780905634462297 16.39226538939036
Na 10.253543916489344 12.240505918036797 16.58986351959611
Na 13.613237883652541 14.1075836516113 17.420463426633333
Na 14.811921785327243 8.241775500103373 16.765633387477596
Na 16.450529078711682 11.519270634677232 17.503676037879295
Na 13.00362648717918 10.832046509730509 18.74625302634528
