28
Energy = -29.19179991 eV
Na 9.99532910772424 17.559965696391153 14.232578670893853
Na 9.097834345812535 14.937994290534954 11.286697314149254
Na 15.32684687443264 15.460301554195727 10.407507501964496
Na 9.305530639684553 14.350660743252046 7.258392651906918
Na 7.7421016855797875 11.686787727880542 12.931834049605557
Na 9.655170470515586 14.183878792261599 15.079596819875944
Na 11.310980448698379 12.990613686424453 18.079498046308174
Na 13.909782661314706 8.732131593659743 7.3248892370176275
Na 15.53175005501968 15.04878218371978 14.355428803157244
Na 14.952086974944397 13.57181991084393 17.691291754467265
Na 12.43630560029958 10.372891240108224 9.890997594548809
Na 11.010650175812385 12.217703291959495 12.35844968376336
Na 12.394115798203414 15.549299489753407 12.679614851469768
Na 13.698508488956143 10.209003765161688 17.202188570002058
Na 9.890504458560619 8.864567379238446 11.918975001383679
Na 12.059376736046424 14.027109300527787 9.383592592796846
Na 14.522547993626151 12.577816443283343 11.823435183117493
Na 9.071118667426076 11.56546342062378 9.361728511421193
Na 13.139851190585423 9.352559489590188 13.457333366375247
Na 15.695110063493486 9.438174644437039 10.87078875351351
Na 12.963035746888949 12.775651446106632 15.05987774890738
Na 12.528310105038996 16.060331364817753 16.39236274973389
Na 10.246595967829723 10.449431841856347 15.339948052239249
Na 16.0834640235404 11.177797219907722 14.601984353175073
Na 10.286664404972006 8.372096475514232 8.101363872065479
Na 12.993407609071854 7.031567312275181 10.371233825920712
Na 11.539825124559606 11.531809223849159 6.63758711176688
Na 14.896833543591173 12.187429434054907 8.184462290681424
