29
Energy = -29.84713043 eV
Na 13.889152823669292 9.255860931996649 15.609461001712166
Na 16.755413466761983 9.170454664299456 17.690516401548088
Na 11.097615204316279 9.734860345820158 13.446531331145609
Na 14.854309773822584 12.180565216057289 17.452818455950815
Na 11.969409327918363 12.593550398956157 15.476001500905925
Na 8.435247922811708 10.256890157480617 11.275999625325289
Na 9.187079385106225 13.127503472708828 13.320478281447926
Na 14.187270113211664 7.961061222827465 12.251232957943332
Na 13.121339274329236 15.42753740156464 17.263965413907357
Na 10.239286441139688 15.998657915331464 15.261919897915815
Na 16.975386247864147 7.651887687771743 14.508957647436098
Na 11.542814404735214 8.622822829479027 10.061416054325397
Na 11.697204357138673 18.783356937907097 16.966913861102835
Na 14.07411551114148 11.532101062793188 12.686588607769194
Na 11.296587627028128 12.157019860721537 10.443181975377788
Na 7.804516011102294 13.774203923788031 10.1350885690298
Na 17.117572082203903 11.123646660470829 14.618098441309904
Na 17.394670763620084 9.449211376715365 11.497796558625003
Na 15.371611179083247 14.30716916041138 14.512077370009308
Na 9.0773927711238 16.492654110999215 11.902891584972478
Na 12.35670354001578 14.870288125313966 12.523653023425835
Na 14.606883690462244 10.493557322295961 9.388536168460652
Na 13.81577888013245 17.58106527070194 14.370552117552446
Na 10.792223323769802 15.414455540494922 8.989854482166075
Na 16.94614179159349 13.002794266629525 11.281506904207953
Na 14.170486061543787 14.266175982244151 9.438001115123017
Na 15.854302391300154 16.336463827606725 11.64233657399213
Na 10.878878892515162 19.106872257955068 13.481943329583045
Na 12.673725619958729 17.84652039339377 10.645621291712324
