26
Energy = -26.13246883 eV
Na 8.54010421400193 14.124453003741225 11.575692191459968
Na 12.454617017630943 10.62870774656537 16.4635379366522
Na 11.83524678204828 14.805502295011522 12.22203759395672
Na 10.316399022564381 8.60603552781199 9.164703734170065
Na 15.982451478227196 10.63548423347125 7.9360860594153575
Na 14.091194196092566 16.567324088825902 10.350290859292524
Na 13.339672636223199 11.680265375643582 13.092166252349143
Na 14.308099913490853 12.964923557573446 9.947329812949238
Na 13.253997591258589 17.228876441531437 14.295990287378052
Na 8.002393651795318 10.390000061705003 11.864063379947824
Na 9.909687647900801 12.272915143425326 14.34316178858945
Na 14.708033969807708 8.707318504353182 14.015814855379713
Na 11.427566646710632 14.523809161478539 8.620325266349738
Na 10.270159987611853 13.404035759731116 17.842695217491595
Na 9.887168191144658 15.732533061555028 15.274285830945654
Na 14.318422026680041 13.739522265036989 6.610704321450419
Na 12.97742711520244 14.05501087367956 15.657044875313954
Na 12.415041916824103 10.884141386906945 7.400586490514653
Na 16.58873463195768 11.09091637344287 11.943584536475631
Na 11.10459401312598 9.01458296056154 13.045387353872506
Na 13.748150043179171 13.094194403453587 18.830024382106767
Na 15.841418039289952 11.838127925947381 15.543281362124524
Na 13.757647452108875 9.259522835208298 10.326669962271675
Na 12.408299841387858 16.456872206358938 17.919410058698457
Na 10.901462804463321 11.68326330372524 10.6122743703675
Na 15.490998636553432 14.49065097053667 12.981840687759501
