21
Energy = -18.8854731 eV
Na 11.170296989010854 13.537253615606492 9.538012601113257
Na 11.139654570355455 10.081479556618502 9.964700868883765
Na 14.411577139113584 14.010457309132589 8.611903570903703
Na 10.109077339031366 15.209757407578246 12.835628770720882
Na 12.096836334736858 17.848791545992544 14.18979673445526
Na 12.959060318765077 11.254181181524093 7.334202369025953
Na 8.688362027974419 12.528624994244513 11.481600910730391
Na 15.975236434385405 13.8913225048627 11.619062748549453
Na 13.109662014118085 16.131864807173283 11.231801228818696
Na 14.484523738969227 10.814990289593885 10.433402239214617
Na 17.709205292461533 13.803144786017585 14.55912658708427
Na 12.543576504557635 12.780527075334803 12.714582483646373
Na 9.749370214698265 12.102095911615997 14.780626439849206
Na 11.840774456857176 14.70461856455477 15.866266927900567
Na 12.873363370804212 8.979252911152763 12.896650646629167
Na 14.805816390561821 15.80588894764941 14.23160908085721
Na 9.308552006187151 9.370993459049208 12.653797392020998
Na 12.796416275462368 10.947329566909735 15.98603206152825
Na 15.052175022249962 13.367454812959824 16.592340544370654
Na 10.55602344919075 8.514191722269235 15.571002775659972
Na 15.476007136325604 11.24207367447111 13.762608447886231
