29
Energy = -30.06860132 eV
Na 9.51968407884685 15.512923193118576 7.226640443227733
Na 10.335721764809591 11.907498627389321 7.215477034447761
Na 13.041857574720636 14.409766785538226 7.149221517494959
Na 7.368704841540081 13.407803410326215 9.401764913764385
Na 12.139534808344912 17.195762589907435 9.255471884497217
Na 11.672179926504263 8.66823143760044 8.54356100631129
Na 8.675725597429336 16.694266336284006 10.612727705890789
Na 10.85274882902008 14.088735257723329 9.901582320859557
Na 13.380221820866714 11.507808105233906 9.269152688794609
Na 9.514797030043844 10.771256387515034 10.651047600302348
Na 17.85200434110108 13.821086995548523 12.850243258754432
Na 6.394989872440388 11.37953317390363 12.145307865861904
Na 14.52785533850008 14.735084424133484 10.773747232995062
Na 15.189040807397108 8.389333625019644 10.196960579857437
Na 15.574117995787796 11.392554962357163 12.04739024789343
Na 12.360112178589421 9.103524099235202 12.061075635903647
Na 12.109771707924562 12.600170208648366 12.503392990571891
Na 15.49995695468323 8.16905573164502 13.847511492664106
Na 11.691567612944766 16.078692953893356 12.891529313182998
Na 8.71171858339664 13.882253631689442 12.968079452686084
Na 14.626858163345089 14.3309763969844 14.368432255142032
Na 16.979383940287065 11.42321471501659 15.368151344773294
Na 13.41018441658582 10.895994894518086 14.984466442680281
Na 9.675598961819983 10.612532317651302 14.325753852876087
Na 12.098085130010976 7.757933273771586 15.52979454252187
Na 11.188636476807712 13.756708691146397 15.74453397778943
Na 14.857838850383274 9.12250127371505 17.400103741350947
Na 14.186444591481406 12.663097960433097 17.76341926694421
Na 11.322293047182221 10.479333782848098 17.76109463275514
