29
Energy = -30.16866863 eV
Na 12.295933736520638 9.905777801380957 6.431433122421252
Na 9.998540330554881 12.90756685060145 8.049171080568655
Na 13.738580764928006 12.729907854618798 8.208421760675465
Na 12.233966504104545 6.844644948700802 8.85907868195075
Na 14.99691240696264 9.281540644173788 8.662691424172241
Na 11.695171553709859 16.08550417723522 9.191311408615745
Na 11.411987610373723 10.097608517543375 9.71806218513209
Na 17.068667678760615 12.125899116363694 9.689524010805924
Na 8.473767413878964 15.207623930975904 10.785356690190987
Na 15.570909766393392 6.1469705354333035 10.255171246528244
Na 8.381406570969897 11.471002759727485 11.10600175130146
Na 11.537955610337255 13.352570828530265 11.091086675968235
Na 9.520669735683786 7.973007117814206 11.771704543361206
Na 14.745303784276638 14.827900668334692 11.139558230634256
Na 14.25907339237444 11.321772429285438 11.57004673822099
Na 6.255617996487943 13.540406003368503 13.383958112827424
Na 13.275624016033387 7.856313037577546 12.132226090395479
Na 16.870614760986488 12.554498423099144 13.300583231324389
Na 16.828622680464786 9.042282113172098 12.070785024400386
Na 11.564047071394786 16.531628875905 12.836159295985178
Na 8.129931887615616 16.513918735027566 14.204268983847328
Na 9.65815559530534 13.509349519688826 13.902380169880466
Na 11.295246244388732 10.446584008716941 13.413454418637123
Na 7.8994900787998965 10.407692639262217 14.524278765245286
Na 13.35464067985529 13.607434094663573 14.339142858235215
Na 7.7848424282871225 13.525918977850562 16.71117454453246
Na 10.86986461378876 15.538924973038778 16.393186406355273
Na 14.458619939405992 10.174316162872836 14.924977402821737
Na 11.150131337909913 11.79573044559053 16.659101335518773
