29
Energy = -29.14137198 eV
Na 13.599621234690549 11.175441954656167 10.83790073305116
Na 14.995064354629358 11.085077126005245 13.958525582345622
Na 10.63756677979846 10.053078486780624 12.496627246441475
Na 12.13747960808741 13.228656257031785 13.365019889587108
Na 18.88749704231256 15.675628165309867 16.29229342929013
Na 15.523217796241958 15.866691564144235 10.470010082382283
Na 10.14668017826353 11.012656626305025 15.838343382839364
Na 15.960784964401757 10.891150793613095 17.345977178191628
Na 13.165078562907864 9.20403995641729 16.24394028506883
Na 8.534302531178408 12.608984979646173 13.139120274326793
Na 17.818949200372163 12.709367863528067 14.881499449895543
Na 19.012070783401068 18.60696747239066 14.362118997818136
Na 12.93769340639234 16.12086644301196 16.401459239906803
Na 10.299518948981685 17.800285255143457 14.863286027941536
Na 15.855718211990117 14.41473669430122 17.523557720966746
Na 15.961780007134362 18.419980583013974 12.671191745569537
Na 12.989834019201059 12.753673770673531 16.746155469391677
Na 16.05653556580822 17.666731079216746 16.142816997110597
Na 10.489398812307167 7.532491211545853 14.967351078314632
Na 13.30686324229982 19.376138496193025 14.989437904568002
Na 9.861459184008423 14.463221978931632 15.792028817733792
Na 9.789011076099543 15.593917057645267 12.208652121248408
Na 12.862059579874796 16.937716320439055 12.536505431139949
Na 15.154014954461092 14.763438752090105 14.019799412022111
Na 18.30458574734833 15.637792903011418 12.726648173836052
Na 12.36747389386349 14.45670336723218 10.095289275918883
Na 13.411517130284643 8.097934335598584 12.840364644941857
Na 16.765313464126354 12.740603226363776 11.493086357314299
Na 15.111869340489905 13.110291217405784 8.35925253277074
