21
Energy = -20.50245167 eV
Na 16.213724031572962 13.97909727485304 10.923074375847868
Na 14.880897496461863 10.7285872244464 11.432819737203856
Na 13.14382413910374 13.198675298283495 9.327517138485208
Na 16.17542969746844 12.39448679686475 14.290898196643377
Na 13.422114445295934 16.387742055902574 10.809184766032265
Na 15.263630272081981 15.947085316544614 13.799998216500272
Na 12.163896694991417 9.942309482797501 8.330197896762092
Na 16.674779171675716 14.937061190101613 16.796142303368306
Na 12.897082341762891 7.851813647971756 10.799101744389628
Na 13.263138861545428 13.48757660945161 12.77202585691206
Na 13.301657984637737 13.861804822299122 16.219137060232125
Na 11.107999306642114 7.939147489694142 13.590005606284524
Na 10.382863484383691 14.652318933764768 11.231707942685029
Na 11.266146694740979 11.042196319208443 11.681201780639533
Na 9.187084415623803 8.84414431433837 10.350195337148376
Na 11.674903800186863 16.340382778648877 14.049045744692224
Na 13.079301034879137 10.629932856404821 14.716654365315387
Na 9.624875574564632 12.153803148176502 8.693134964090783
Na 8.544393337107104 10.006883684535456 13.961195018220248
Na 10.284693379075712 13.089146070632331 14.525474291654582
Na 7.804697646976659 12.177066109774687 11.569095846519092
