24
Energy = -24.62427749 eV
Na 11.81359830533918 14.102283410774739 7.108902262529338
Na 11.477422393423064 10.265958391623865 6.555662423987756
Na 8.191607763978924 11.912457439436922 7.018564583860897
Na 14.00644651400235 11.85105354413663 8.788838528760744
Na 8.66542375317338 14.634995546089248 9.487436259073943
Na 12.41473289461648 8.4248133705118 9.568042354522458
Na 7.008827218072747 11.336262896252526 10.478013051133264
Na 10.000747100286034 6.167251303063197 11.192938779039343
Na 8.770306559215577 8.636779528531113 8.658660311690378
Na 10.473503864401234 11.737262026336795 9.466958218242032
Na 15.018194476631287 15.246798015118737 8.425639676865865
Na 15.370924312206585 9.578263200486408 11.411024478829855
Na 6.6537546484436145 7.690607697640931 11.709595126460076
Na 12.22268026037965 14.63737520338533 10.59910381270024
Na 9.595771714386919 9.481083439055388 11.974126777116897
Na 12.53012466485939 11.370433632783776 12.031413888498497
Na 15.416617758992123 13.496786907314549 11.605791056168137
Na 12.484321519330866 7.972915363592944 13.306222044964347
Na 9.242222439542997 13.244797347290284 12.800946214772944
Na 8.91741104721574 7.297850432932532 14.567794311687663
Na 7.097939563858615 10.469814494569446 14.088000226828939
Na 14.392439709543781 10.797822750676064 14.767682130867222
Na 12.51341371003277 13.94301153358342 14.260514042575322
Na 10.688154361745045 10.669909078492497 15.094715992502982
