20
Energy = -19.22682612 eV
Na 15.74051957519781 15.397956970433267 12.46185178526757
Na 12.770186336576367 16.828187074542203 13.012008444539935
Na 10.531360081853073 15.777675434615915 10.582128833188577
Na 15.443459868161467 13.37433622632436 9.64355892305392
Na 15.927105079574362 10.232622509719103 10.730532197388964
Na 8.188146629651087 14.061155505070221 12.255930508981699
Na 13.513766062622262 13.618553966630962 15.226063588408739
Na 12.76822488077485 13.40544616495429 11.918138446955087
Na 12.393121127160724 13.99929854147712 8.46622833543488
Na 16.317955623334388 12.251244813552841 13.537029519482987
Na 10.373440217500248 15.180156725191319 14.729292068351777
Na 12.867627884662474 10.69908752190603 9.529094090497274
Na 10.595873991833558 11.764182524199303 14.337761348557688
Na 9.89610537193206 12.173966244184115 10.120364214206832
Na 16.321159140695812 8.635761947994748 13.845540835771663
Na 13.454164780500612 10.345421001065843 13.772678448282015
Na 7.691167900326442 12.883362978007616 15.541857239352845
Na 13.7620691844721 7.735263513918362 11.463495635975647
Na 10.67398513845517 9.1500026229692 11.975526500441756
Na 7.703838881963733 10.738275925565512 12.648526036116277
