25
Energy = -24.7129781 eV
Na 14.35795297515584 17.070338882762968 8.417173706407771
Na 15.949504584589501 17.82046882086939 11.399052899548572
Na 12.377823740988612 14.254285841560945 8.77813422511814
Na 12.724352532944184 16.4513590479751 11.489835519189425
Na 17.624152697030436 18.618150965406993 14.396499345571499
Na 15.519901222819618 14.47550713182435 10.359825151991844
Na 14.355621793310403 17.194201368348374 14.45616770690343
Na 10.361193896661408 11.372278312032217 9.074978466978004
Na 11.048693025461281 15.936822996235566 14.478494066954434
Na 17.240306282921264 15.162835108447519 13.309583556787517
Na 10.760250301681372 13.616737326392721 11.817449847641951
Na 13.631023166384765 11.558811292131894 10.661648702915544
Na 16.802035862494762 16.12357202456784 16.69302052295359
Na 13.941462002552107 13.743492275643652 13.504238438360682
Na 13.38461346119674 14.839839503382754 16.797488993258714
Na 10.819683417139085 10.165101792772374 12.317644219395698
Na 16.830207954834815 11.854983618465267 12.131660142733999
Na 11.053788632486397 12.523187681541089 15.088371879973462
Na 16.613142798563352 12.554748277187414 15.569031381745926
Na 12.670490473661728 13.219948581836706 19.74789459929282
Na 14.24432704014932 10.196123203624111 13.830933047115265
Na 15.934084138677834 13.551610887232501 18.820143089932227
Na 13.824445474788085 11.24614553832477 17.067002861514474
Na 11.441171039462679 9.063539044704426 15.527216713392146
Na 10.459511839255446 11.042387661141234 18.13482877088357
