20
Energy = -19.71451348 eV
Na 8.576757909721216 11.500879249760368 11.972397452841415
Na 11.029919741412062 9.096403439252903 10.661265237836698
Na 11.161143753159143 12.623758145711593 10.046916570276935
Na 17.510070168631213 15.186238940365149 10.057121639568575
Na 11.881377025573325 16.108857287348453 10.984602230024093
Na 9.67946328928735 15.324949532198513 16.907529910723145
Na 15.266684985422891 14.317882529877338 15.732890386069013
Na 14.170092534549115 10.630558846176184 11.270085500117748
Na 14.774728085886972 10.72605842515877 14.97889974580934
Na 16.609556496901508 12.868872529646474 12.799770766866324
Na 8.86394209302325 12.294395634131503 15.516653972843777
Na 12.918458356308179 13.398024146759948 13.119838574200244
Na 15.165756890696638 16.197409399293235 12.520392414448288
Na 12.189570219877815 12.8390379388933 16.625637851527937
Na 17.244623301168495 11.698927668687444 9.580712544121917
Na 11.36910062074717 10.352564106484456 13.970676408192627
Na 12.300038736570416 16.338853430134364 14.858928192165827
Na 14.361048107755556 13.919929590691373 9.718841664394576
Na 9.47955091598721 14.766037323517077 13.143253901354633
Na 13.564638934699722 7.790472568531139 13.193137572864199
