23
Energy = -22.61239858 eV
Na 15.863741181996128 9.986047215882396 12.954133384792138
Na 15.860194686019618 11.815158781744532 15.97926932284083
Na 13.040653058551477 9.69891459790379 15.55810135761116
Na 16.64556132971763 13.463490299789964 12.501854952539608
Na 13.868064885040301 7.194466456363007 13.339451016037563
Na 14.811043423347186 12.075966110515074 9.98854271920168
Na 13.412608723410571 9.107689726896762 10.48903807740117
Na 16.17728820463527 15.160670121108089 9.281077861911035
Na 13.321853000332593 12.193176598930862 13.266419159523755
Na 12.253663490012782 13.043570774148778 16.62818805484466
Na 14.633455185119926 14.984340459629614 14.933555353645541
Na 10.83766912311848 8.84802136068597 12.885947020506892
Na 8.929990278217716 14.479061134825823 16.118070550211446
Na 13.709967940035266 15.434479885847859 11.566502479998457
Na 12.323434273746214 11.122177212446074 7.7995249326353155
Na 10.058583462568867 9.33400835486469 9.522958610080803
Na 12.813389823325402 14.509928305175666 8.317502069369068
Na 9.995719558426579 11.633439799517031 14.503575704901305
Na 11.023420676066173 12.396344711119143 10.833911067928879
Na 11.29881671372725 15.21966960141482 13.831634913561455
Na 8.038655328570973 10.745933903198024 11.810447159572895
Na 10.366736394168617 15.745962231579178 10.47503155872444
Na 8.20193140812124 14.096976473018946 12.661199357655928
