25
Energy = -23.83401252 eV
Na 15.53871472621474 10.042721368763432 17.30924750510238
Na 13.822086281365417 7.494665364047621 15.745208787001527
Na 15.146417318217555 9.830008882032304 13.647802585768277
Na 16.874637955248314 12.53672598198258 14.909121335958357
Na 16.287527497054214 12.086698261628651 11.39416521984523
Na 16.569901328210715 15.415585318064688 12.539541636000354
Na 16.94678870385432 14.780232100235391 9.24250979365528
Na 12.322054094786113 10.665512340841321 15.922857990012318
Na 13.154104209550303 10.751107027916623 11.045757132913172
Na 11.78115418299158 8.442458890231874 13.165489654333589
Na 16.21657942373655 15.756765625766832 15.950884589583183
Na 14.20954671386118 12.883346239827656 8.605145089102745
Na 13.655890498046437 13.350061250631162 13.775004995290097
Na 14.133301154494031 13.179088875156207 17.38797764609823
Na 9.85443443860167 9.609001748808954 10.560480874849844
Na 13.784826663944003 16.98382592038998 13.795666633323474
Na 13.566688742986486 15.430838985176338 10.731838033652078
Na 10.661168591950675 12.882061909564365 9.831989417324163
Na 10.354463518222492 11.679062389768237 13.298221523487241
Na 10.208348425561852 16.204068772485858 9.339488197945263
Na 10.787158418371863 13.792253336186835 15.978646653832289
Na 12.984346961895627 16.31421555664014 17.05669980875925
Na 10.695677572930325 15.004876902190434 12.698089797966738
Na 10.484396107453183 17.509011013025027 15.147696097393034
Na 11.39994907410099 18.297880031666253 11.772404922502481
