27
Energy = -27.82814595 eV
Na 8.518657027073331 11.623834457793754 6.370835234942397
Na 10.811251683425388 14.152550678675171 7.3064368189681455
Na 10.882954399840866 10.73146492092678 8.65053002469372
Na 14.089859056431363 12.620357936314244 9.02558095510146
Na 13.227651411637966 16.161980232944426 9.58189862780299
Na 9.408408849321463 16.5924277186148 9.835417679161957
Na 7.775703110330828 13.289814003139977 9.455897248620973
Na 7.511982301643715 9.700839701347878 9.259499808735324
Na 13.998147699820231 8.866495970602662 9.437265675387927
Na 11.10352787187497 13.753946957710882 10.775666850008182
Na 10.725849087638004 8.111635238367354 11.17049381625648
Na 16.234893664272448 10.910506351340947 11.652410307753462
Na 12.635443645881706 10.920975350152602 11.769377805869297
Na 8.883032706278154 11.11799025496346 12.197513251325352
Na 14.207513960816184 7.965307839276347 13.016965062624228
Na 14.590842642852934 14.120876672943819 12.348808641592994
Na 8.46362366076559 14.589977746377782 12.866557430090417
Na 11.776554497726652 16.475159903727086 12.916167658567506
Na 11.089391272733595 9.556883686209098 14.63653629918409
Na 11.469352051153837 13.258471070977954 14.294708314924053
Na 14.37016014354656 11.162554700075718 14.698563714699034
Na 17.149754840426592 9.252523528973647 15.03896999155272
Na 17.381573311450392 12.94529367350661 14.525511608859881
Na 8.651506683615676 11.98647524366438 15.720579702832024
Na 14.480665433252002 14.52743990409729 15.941176550302432
Na 12.274504491455462 11.668244619588123 17.468641676116476
Na 15.885980214887526 11.534757357840979 17.63677496417939
