28
Energy = -27.73585238 eV
Na 15.606121850804845 15.073092738086675 10.992182307663589
Na 13.975821449802739 13.278098210343668 8.025435501196029
Na 11.229556872933552 12.09852471050543 12.908815166046422
Na 13.72780425655697 14.569924889549563 13.966518501837541
Na 13.029083796509052 16.805193013518487 8.430541209884735
Na 10.476244312406275 14.218064168343217 7.494051616570357
Na 14.253966037762282 9.541471863568072 8.767609629739963
Na 12.073812697863586 11.063545624753798 6.0365641546895015
Na 11.235383837134684 11.157808621104566 9.433529014455308
Na 11.170063550859881 13.079403298711265 16.416702596532343
Na 10.196734406768469 15.43981886549004 13.657307688457601
Na 14.552802044426851 11.825312683069535 11.375588322155537
Na 9.716408633887216 16.894627283763228 9.994634600228846
Na 8.930420913206966 9.805932691068959 11.912418872802885
Na 12.572809025894372 8.869137272890535 12.134208722390921
Na 12.091392271500656 14.487636570944456 10.683221713229592
Na 12.692464384055906 17.556360698751625 12.108741471556415
Na 16.723695299023124 12.81510013958923 13.996861217420708
Na 16.04707357847979 9.058429420963913 13.197956599588158
Na 8.624775956872773 13.51114709315655 10.662189268784184
Na 12.519619643122734 16.318404091172354 16.658044052591645
Na 13.77372384247067 11.044335581290463 14.902218875709533
Na 10.586147414435304 9.51511370290591 15.375014195616224
Na 8.178383205734873 12.382602778827513 14.339926943548251
Na 14.592754736493678 13.331932775159387 17.438989680667554
Na 13.751657192163407 7.644864873560999 15.684465537947117
Na 16.341462012411608 10.052643261226756 16.818334367706495
Na 12.887135707589707 10.11879200885666 18.145247102153974
