21
Energy = -21.30103583 eV
Na 13.219159435845178 14.905583952925893 14.321136456263535
Na 12.155261850278201 12.653815044078058 11.948396642992975
Na 14.681687903378528 10.282619181215995 10.833430262494051
Na 11.519290986960144 9.303067394860781 13.262909292014243
Na 9.845343505064859 15.10275965880319 12.919853397682727
Na 13.422624613742503 12.987555495428564 8.634437513056879
Na 8.220403382116091 9.471578166176542 14.631452227085749
Na 14.748693388811914 7.86035928670915 13.391878263548767
Na 15.551258255916043 13.778870526956185 11.698970171476423
Na 11.032331821414038 10.38275416817634 9.690519901309164
Na 8.601208351320734 11.835229642507008 12.163434349236562
Na 13.54984526014667 9.558101846605323 7.516541519958513
Na 8.828691390520664 8.197851423257223 11.232119513928529
Na 12.720119207559135 15.896011854868522 10.781915316828496
Na 7.686604355743355 11.024933977864567 8.885309092313937
Na 12.572292284658328 7.387721266558617 10.480267215697419
Na 10.650095409552282 12.221895801221661 15.110303560266331
Na 5.730316779581108 9.729075486592592 11.823574322865907
Na 10.653576195220301 11.81862976029862 6.568479688853593
Na 14.311295561131505 11.34464180031502 14.34703391856898
Na 9.935158034838418 13.892202238379822 9.393295347357212
