29
Energy = -30.16308076 eV
Na 11.557727388593745 15.011023227670192 8.091874582611576
Na 12.348401957002629 11.747273030750511 9.406207992814481
Na 9.639917281250245 9.239202469614646 9.537352147771172
Na 14.455295293746252 14.481197046967008 10.487642296923816
Na 8.750098412068736 12.883133901810943 9.046345566977719
Na 9.835756284529833 11.52116803711378 12.145930223156041
Na 10.988675972480658 14.805515716128918 11.4251454384062
Na 12.559683748052873 8.981216383355688 11.988908488194443
Na 15.493215059578802 10.860362006428986 10.840972658525677
Na 16.739684525217733 16.525160950864457 12.714602543396643
Na 18.02093852038415 13.477335270762563 10.978733646389873
Na 6.737776341069499 10.656064649487169 11.23906686159582
Na 15.880446680219524 13.314600880292854 13.680213527902673
Na 8.403226222379901 16.434219487019448 9.7942462434657
Na 7.399957507122461 14.168420723043395 12.390582005598002
Na 8.925799064796093 8.32626757586176 13.04442084400009
Na 16.17423430378504 7.772144345534716 12.441974692943802
Na 7.570987756428897 11.31959834671275 14.747825268570578
Na 9.273982413561578 17.08495183497634 13.319667670567924
Na 18.172224566836462 10.596024918598888 13.391352330455527
Na 12.86170460372597 12.37179551279575 12.993768112142586
Na 13.166183994292934 15.906292687530883 14.002210617923117
Na 19.030574161966168 14.163012808801883 14.419626040094663
Na 17.07449986002854 12.080810915693295 16.665790636760594
Na 10.195948196902616 13.982863131158874 15.029349962321131
Na 14.798568370352966 9.900632337952553 14.829964719557683
Na 16.14782305625565 15.6427220800059 16.23011503803354
Na 11.13204968033038 10.41843800655453 15.374795562759287
Na 13.415819789299379 13.079752728771561 16.49251529239845
