26
Energy = -25.78371704 eV
Na 10.473467190830021 12.028582973678233 17.44014477558614
Na 7.811316136096262 13.51394548642411 16.010831505028523
Na 13.729699928204417 13.643606213940997 17.37229159515241
Na 13.161772844008047 10.417947712481949 18.732900464050957
Na 11.020905883156749 14.966585217488342 15.751246968947635
Na 15.834194104168738 10.920340904933827 16.793534776208816
Na 14.123152698478615 16.710371417946746 15.926735366245984
Na 12.769196066817408 10.773638507516937 15.216291065910498
Na 9.98992782494933 12.158915301500938 13.65442015430789
Na 8.4313295181457 15.899630232440375 13.670564816073114
Na 11.707400926311855 17.117889235248672 13.229040584127233
Na 16.3106589070702 13.96833726462696 15.056439971546437
Na 13.219151628603385 13.795625941765566 13.291199433894674
Na 10.115528972112774 14.461537221635716 11.086308856828886
Na 18.671337508115776 10.945871507788796 15.108536131413677
Na 12.298955582908743 10.148327938997571 11.990643413295142
Na 15.573578498771557 10.924611409195627 12.979594497764674
Na 9.609568090243531 10.993067833310471 10.11609426888818
Na 12.957819071665693 16.132895228965857 10.270570809478802
Na 15.432183106134824 16.501700053680327 12.75007399905458
Na 14.822170121864511 10.117868755652772 9.548457848011887
Na 18.463303463963207 13.049967716184407 12.601577109054954
Na 12.52023870904995 12.699209141821298 9.342919349079768
Na 15.608939907767276 13.572613357791747 10.565567805686314
Na 15.908591844988862 16.813786639531646 8.963452940801586
Na 18.275582803022207 15.862666380643692 10.96621118333916
