29
Energy = -30.31783388 eV
Na 15.4068090771348 13.64808304910122 7.678599183374078
Na 13.413317417773275 8.21540826324591 8.877560524277802
Na 12.385708216713269 11.478231036603768 7.8886378580529355
Na 11.976586806769044 15.023281782614047 8.161974104432277
Na 15.348133866078022 10.160567346943846 6.445396925970521
Na 14.700767860075981 16.63701839709301 10.058577020590834
Na 8.87647608656462 12.461788688805116 7.619641449117497
Na 6.8797144837742925 11.430125440226401 11.04393074335358
Na 12.494899522224385 10.36223420316835 11.40753071076442
Na 13.70287123278555 13.49933544729225 10.708239533307275
Na 17.039669133796558 14.006348903168941 11.065985531341427
Na 15.880003908759429 10.723960771810486 9.883424712482688
Na 9.634164235146086 9.429134481389623 9.656963782928681
Na 10.121007031989176 13.011546542371656 10.608160032056638
Na 14.701706344116696 8.111880920547069 12.458009960728097
Na 10.927550517615398 7.348575285423319 12.586800691338897
Na 7.221775333599021 8.015344112142119 12.418172787853578
Na 11.4065670634347 16.061184434319937 11.96788153584317
Na 15.185249346821593 11.684025100675488 13.461451340903906
Na 9.43325490253962 10.487437706984807 13.173877116835888
Na 11.786694605110487 13.008323882887309 13.701554585128966
Na 14.625965548060472 15.320053747537932 13.59714483063167
Na 8.281712582009549 13.87224680488327 13.65805960134601
Na 12.360960665041594 9.61978470677802 15.097247962874096
Na 6.430937062555195 10.80484080871352 14.719054492643801
Na 8.956817134618023 8.225066642488356 15.669712760538406
Na 10.652170956759361 15.35728198378322 15.886264461058664
Na 9.61211135213502 11.840103590812697 16.498685742916585
Na 13.219800701146347 12.820188913334679 16.664863012454664
