21
Energy = -20.81038244 eV
Na 13.122696947767189 10.199349902538069 7.799839508435115
Na 11.405786168809389 13.38845171634242 8.909535385234362
Na 15.058980561435007 13.283425301019932 8.402985138572562
Na 7.966936268833295 12.58182257551438 9.431200509581387
Na 10.417900820919924 10.307209790002863 10.382583778813448
Na 13.336922765131384 15.105046239737895 11.40157986331293
Na 13.148539553836695 8.024072718578589 10.671909983455068
Na 16.308648138896114 10.075910160229654 9.430459985704758
Na 14.995215506547918 15.146869334065983 14.527987506702388
Na 16.61637950764932 13.424680191457684 11.56075293930263
Na 13.710806851796026 11.474492190174043 11.05462645927101
Na 9.487520719646927 14.859092952056654 11.714158721829056
Na 11.464288964655454 12.632440654262643 13.339860154404317
Na 8.067945693625552 11.522929289382407 12.85615699277683
Na 9.567100774838412 8.172774977735328 12.877006100363628
Na 11.605431338056427 16.028505150003845 14.51489372375776
Na 12.553406368631883 9.36973189379935 13.907518600551075
Na 12.470276864430351 13.172278268957047 16.551341282438678
Na 15.015873401311996 11.756206018227346 14.287450270799656
Na 8.932367609132356 13.963549615937515 15.576777082668517
Na 9.743920627469809 10.508106513397708 15.798321465445902
