27
Energy = -27.63833493 eV
Na 16.605408357631774 9.572801426901757 13.895629480261173
Na 14.919744009876863 12.488537878310549 16.2295750748385
Na 16.74202329207717 8.036152921778479 10.66545915002885
Na 14.091630292377388 11.630273855827072 12.885298464192553
Na 13.616521415213583 7.97239937244675 12.345105652680559
Na 13.327605134610854 9.376787164483394 15.673170955772104
Na 13.1903839782974 15.161911010485568 17.781166829865796
Na 10.73696039730939 10.754698796381557 13.589044521567143
Na 17.03556412309947 11.524865415076407 10.811850976424486
Na 17.279660922837095 13.35084928359896 13.851310673281272
Na 16.866995267177252 10.187955448864075 7.589673397182451
Na 13.91335116906053 9.680340342320312 9.337705426110452
Na 11.22164863515844 12.19386996603002 16.820212153320085
Na 10.723768386669573 8.998168215190928 10.507064524689254
Na 15.155156985823877 16.03409130084621 14.888363278215387
Na 14.965574861991648 14.834426314581105 11.526720829335481
Na 12.069204098199858 14.365242973646831 14.14328223484843
Na 14.860645038877479 13.076796019497325 8.373374207662952
Na 11.891142767153909 12.564557856909468 10.495056210201046
Na 9.805136752492615 15.46925742866196 17.087861485581666
Na 8.518941391772474 13.60752366441673 14.39963818760925
Na 12.251202151801929 17.995468575251568 15.992218567506606
Na 8.463126111985055 11.820198359959464 11.21456156015117
Na 12.571164867088315 17.478701848525546 12.428125189557122
Na 9.829132591791806 15.188237724506683 11.387943470742625
Na 12.624310717182029 15.882678280730383 9.190043861905927
Na 9.303120704597502 17.247454247211355 14.120021647209226
