24
Energy = -23.92064776 eV
Na 7.377043892190992 15.498576187462938 10.022422354837614
Na 7.283632010834951 13.051819189866164 12.608235156287098
Na 9.735848575738625 10.406449046986413 12.540113948378716
Na 12.347070574717403 10.772042393614756 9.807784136931367
Na 9.952681412611556 13.187424743427895 10.149862930027266
Na 10.770337272534697 16.593207544506967 9.496813216000135
Na 9.977798625883478 15.492450092008156 12.821008542644623
Na 9.751479999025566 12.80666428089818 15.292855775170421
Na 11.358945491655835 9.637901317974915 15.598123039128973
Na 15.196084927675052 11.834503288407525 8.034915663566569
Na 14.806081603022733 8.3410420379956 9.459404565488304
Na 13.5369143969535 14.278048920149963 10.026444919673267
Na 13.04755131375594 8.719706246563199 12.512034928491476
Na 12.48902714056179 12.667238880852938 13.054862419736535
Na 15.606160259849105 11.337595284319153 11.467322667082234
Na 12.547888996969494 15.386694522430634 15.311303137995727
Na 12.957491295391584 12.33063088451802 17.237205352181437
Na 13.159186523881749 17.042893086649077 12.185978533810752
Na 14.83760395023917 10.730566216300414 14.832259687142125
Na 15.704403085671867 14.564795699673336 12.883145184032633
Na 15.815282273388359 14.117191055836773 16.312890994888704
Na 16.592010619866425 10.955476183527805 17.715162608372403
Na 15.275039189102094 17.518379990705423 15.026700605571666
Na 18.028597292276807 11.984914935799546 14.515704721126388
