20
Energy = -20.13746058 eV
Na 8.930867347033985 13.00523890420878 11.407684062118502
Na 9.739417464252021 11.13821633770846 14.245823832347849
Na 11.113817244879808 10.772510401368637 9.459220497016943
Na 10.783684444803889 12.46561740197745 17.482970641459815
Na 12.9630093869029 10.416006470770423 15.378181406925137
Na 10.827966102057717 15.88400181386025 11.589584250414918
Na 11.80445601825864 9.022103270939585 12.400803938720076
Na 16.788623795565115 12.88134534546001 10.690359629183426
Na 15.104821642759621 8.048799508589324 13.609026920337453
Na 10.215450211918832 14.562631038616093 14.728826086126672
Na 13.864709211238448 12.780704019686631 8.86287561405308
Na 10.738833597282683 14.210838507033735 8.57736917364748
Na 8.373109081046202 9.535179216325188 11.26783921293913
Na 13.620841266335427 13.806583281172056 15.91177705380588
Na 12.630321853015335 12.727991843879884 12.379289260966782
Na 14.704574796336177 9.976656015266915 10.709214273101338
Na 14.063992755030398 15.937248086954344 10.315717288929989
Na 15.925359662329576 11.454259523952084 13.850675662674819
Na 12.916013366604053 16.834988141615522 14.16038293245706
Na 15.568920600494941 14.84467063181719 13.253192855315369
