26
Energy = -25.97155398 eV
Na 15.301220284471393 15.176263038903395 13.831513697329317
Na 13.154706300387263 13.185281480016323 18.661306433321094
Na 12.408669083842403 10.647709369040962 15.26608909406194
Na 20.456913134774084 13.586857653595402 14.066322974395721
Na 15.368501871997493 12.36342341663134 16.218839054443976
Na 9.920455288349755 16.92345703884895 14.048870758130281
Na 13.108040088193219 17.71338303349508 14.814997827746172
Na 15.388885908754734 14.595169997134105 10.29337192953
Na 10.49097406604403 12.264907482567367 12.637407177552694
Na 14.891255547488669 15.834291474238876 17.309627033660032
Na 10.163944358635364 12.528166790217172 17.33671706921379
Na 15.595147916531449 9.710942175713058 13.929022384821858
Na 16.57823955968846 18.021751004687484 14.916269024952959
Na 14.783252815957187 17.870354972226323 11.703027811273051
Na 18.617890393372143 10.968271265580263 15.282883876871061
Na 11.42736506500005 18.89342438665829 11.718845047740421
Na 17.96992232319156 14.74497048777741 16.068361123917377
Na 8.582521983813114 13.994871937068618 14.826314958358406
Na 18.5288869655214 16.118480620856754 12.591327462239219
Na 17.37328156057021 12.690889154304697 12.4988969332914
Na 12.804381224112143 9.675283528054184 11.657275121229794
Na 12.267214445822994 14.190721633676413 15.178770424669061
Na 11.261583294916116 16.257833812083813 17.715765153530736
Na 13.993599082593244 12.51351369853173 12.671992638467424
Na 12.408231916450317 12.627827333313594 9.5616847065269
Na 12.163651444380132 15.412507844813586 11.714220292618124
