22
Energy = -21.88908385 eV
Na 11.114967307503866 9.668639650668014 14.727945736257308
Na 15.063299151254158 13.089858550490987 18.36701781204713
Na 11.785004314101712 11.726313663575358 17.54020238444742
Na 14.523911932562736 11.046580934409766 15.367897284938325
Na 13.974648272293196 9.074457950826751 12.43073950865993
Na 10.716089294570295 7.811223081233813 11.726952628983582
Na 13.41199970995759 7.065789352131236 9.39918159814113
Na 16.204926828895925 12.055763471253305 12.21185027365895
Na 16.551269602168297 13.969386049517794 15.178340156529313
Na 9.68377994119745 12.967786109303095 14.960765694018292
Na 13.042814828917573 14.432607685494752 15.610189315850265
Na 15.500049060135874 10.051742356274035 9.370133045215702
Na 12.530790551400836 12.396331980512095 12.646363815866462
Na 11.097306438807252 15.719926640427532 12.896101796664144
Na 11.973027353689917 10.421639144618275 9.64633755445438
Na 9.159238806639628 10.985525983754954 12.006720915674945
Na 7.915768947876409 14.299286415076422 12.177747043044116
Na 14.76313598097988 15.353736205666863 12.448132258757344
Na 14.24683565131585 13.366037000167227 9.491569339301694
Na 9.101257635986913 17.038826069985927 10.096043527048352
Na 10.565851523347026 13.691413027467426 9.876991172625837
Na 12.699912398515496 16.546977958031203 9.821277869782644
