27
Energy = -27.8251916 eV
Na 12.756271971306642 16.10352013964989 7.5149710558115865
Na 10.296226264575559 13.020654580656498 7.488418565262396
Na 14.013536562072641 12.792750827198857 7.691556619587743
Na 8.182991206621733 9.964016526321528 8.914390165441226
Na 17.330313319005118 12.521748466458192 9.343487788942818
Na 15.366463644416786 15.505408119170967 9.993025860904464
Na 11.645120452963265 10.592395573964323 9.616213243427783
Na 15.072267338709157 9.54540124935734 9.258674055891404
Na 11.801625429355706 14.340928576873484 10.28011044739311
Na 12.664564112277743 17.53291827176066 11.04580203437608
Na 8.744048332104216 12.63570403229516 10.948137377943631
Na 14.452838005677819 12.27817693248456 11.242000407731426
Na 9.641935459457608 9.113354621476926 12.230738809410244
Na 6.330504031168709 9.894032073399309 12.206871432160904
Na 16.875316275210555 10.168465486745838 12.36822807945061
Na 10.576371965397737 6.568102338711531 14.411920360441249
Na 11.539960563988844 12.114404178952205 12.994112813088602
Na 17.156583110376676 13.783917972665817 12.76489555038845
Na 10.192166720005012 15.335476092179212 13.288265310068528
Na 13.704961752941244 15.068253496101002 13.562551287009555
Na 13.280679664357015 9.01258147783989 12.53610291554726
Na 8.37660049171298 11.95491442822433 14.563115667600783
Na 7.774802959088557 8.546080061682432 15.320568593795157
Na 14.57234288381703 11.778690789005562 14.819689330007133
Na 11.346840450896101 9.727047193935338 15.661057361280424
Na 11.493683442838938 13.358599622457787 16.206648454828624
Na 8.935186353402187 10.866659634177973 17.852649175955065
