20
Energy = -19.5445012 eV
Na 15.211289848386327 9.074849159261415 13.88307680867391
Na 11.739161373305292 7.961131366890774 13.312685160381827
Na 12.289640875228844 9.739882839639106 16.084824300017853
Na 13.657564969210943 8.45635723258987 10.594617393034206
Na 16.154493286936447 10.725470325704352 10.700599679613289
Na 14.72666667211263 12.026335487732155 16.1669101827026
Na 16.691469305761185 12.47092981067362 13.501500935465915
Na 13.213296094431298 11.351075974374792 12.891120959292458
Na 9.90999056677468 11.724650019030136 14.373824385077594
Na 10.291066086659988 10.220025848005019 10.969532123304452
Na 9.697185844629505 12.757287311150819 8.577087504105815
Na 14.55001646812228 14.41374980520885 11.456309953400732
Na 13.06178460919073 11.856147437734926 9.23612949767184
Na 11.174287543392957 13.532831927150195 11.668042447440154
Na 12.587401746768714 14.435094822953243 14.723273876194641
Na 7.779384978263713 12.646370877067032 11.708401982932385
Na 12.30962450688262 15.31035821830764 8.86520003217358
Na 12.063541395241105 16.886398561565656 12.208069755334249
Na 9.155790719366635 15.719653822503924 10.5104954276634
Na 9.188345322226033 15.22165828819102 14.020308909877377
