23
Energy = -23.20813266 eV
Na 15.366698836793091 20.529737385939708 11.35455172108147
Na 13.910726796567722 17.44713766747598 10.701482062784967
Na 14.612329111995583 12.202797487199513 18.07331444796612
Na 12.050796014972091 14.300079471368097 16.941087777156817
Na 14.123182279558005 9.168859946595802 13.06337536892545
Na 10.360643654535254 13.370393936481518 14.05340836359585
Na 17.73418192468139 12.35625597144197 16.263787724791484
Na 12.006229222307224 14.143540005315504 10.825197682147401
Na 17.0552971861754 11.448377490975592 12.840531042857812
Na 15.612123167023764 14.517895642275574 11.486830568788045
Na 17.56164268234454 17.408595033360573 10.802527922645258
Na 18.148204392600263 14.927711951753977 13.66394764071337
Na 10.078948870983522 16.849783370672625 15.15185428838846
Na 15.833779367749719 17.784786138585506 13.777360219737243
Na 15.577625364789872 15.133290013476062 16.228595907222953
Na 11.220917480041821 10.852311078094457 11.840773851101996
Na 15.609806959107276 9.483216025032338 16.09340728158517
Na 14.118947965882814 12.567115746296455 14.166218036271824
Na 12.607026404486476 19.486378309154222 13.411032682677243
Na 12.995443493838911 15.793442475526504 13.734453012293667
Na 14.3439393354799 11.50199284126824 10.297307011712448
Na 12.071190931183061 10.49292432203564 15.885658565411013
Na 13.173110731453743 17.738143797949718 16.596431603708517
