25
Energy = -25.09467453 eV
Na 9.0604134768075 12.669171600913801 15.564640981792778
Na 8.164125789611171 14.08264635921032 12.499130907680584
Na 11.767655938355512 10.292160359019709 15.519394423378927
Na 9.511475226110726 10.58273574129656 12.710501752956057
Na 7.770872721135143 14.38288390553209 8.994295935060755
Na 11.83520283065126 7.8485387515898495 13.000398816977727
Na 10.58990261844218 12.710639383520451 10.176970580417045
Na 11.98964388140706 13.549312114727819 17.194231057177955
Na 11.239574586510358 9.281354440662055 9.817476561781977
Na 11.992217008355253 13.574093521560863 13.397440350055117
Na 10.301584578501839 16.241717093070527 10.7743161003733
Na 10.357922968570687 16.158754859682833 14.798821702290901
Na 14.979353079673054 8.645896819509515 14.572218025448935
Na 14.720365763432893 12.096150151955081 15.449399642210308
Na 13.669004652936588 10.94443684908493 11.925470662595368
Na 14.390397477964372 15.645246854144926 15.63829828358583
Na 13.26872580528608 16.96510540968161 12.583878071069597
Na 11.017156449509592 14.755595163667515 7.400401016799849
Na 17.38058172676557 10.243163205917437 16.715771332866794
Na 13.272058743674151 11.847616674366364 8.045943347982536
Na 13.639198279530698 14.722525694479081 9.927107658229838
Na 15.82467218087711 14.287772001805001 12.726115625558997
Na 17.68952584466636 13.762707806223585 15.800884593721573
Na 17.360471601148276 11.063168514690242 13.239113378448891
Na 16.355665543718448 12.20110629259115 9.935572500516505
