22
Energy = -21.03136886 eV
Na 18.705188006419693 15.706289910676732 16.9570516228388
Na 15.671595394083461 12.42042064576141 11.490774887139589
Na 8.456889982502279 9.468909462001461 15.317688191392433
Na 12.535977173155505 10.624946769071132 11.702957609506463
Na 13.179049328779223 12.902700164610566 17.090998551977467
Na 12.910886826437666 13.580924891009934 9.71815994274622
Na 19.756699841001215 15.350140403600305 13.891170555761256
Na 15.083496324245669 10.515648488079101 14.341014975406676
Na 14.42114409964197 15.935445516195312 11.938446710571043
Na 17.784482573867702 15.21498405271733 11.322616314319806
Na 15.843819425988498 14.81072542337899 8.738163667843788
Na 10.569961241255788 15.018998926183736 15.484832769641862
Na 13.598422991720316 16.38906527704022 15.34818095413182
Na 13.10686317470126 13.311905363183092 13.73298153052716
Na 16.760268748392498 17.086612547402453 14.280089383308319
Na 15.663079916510577 14.975086520427114 17.813156047197946
Na 9.511849116892542 12.160364264653333 17.02308481317657
Na 9.846001777493594 12.110275699448527 9.957762734253894
Na 9.543516651263966 12.215436356830152 13.402993887832155
Na 11.862661938013893 10.212511404383644 15.201443288724851
Na 10.816740397782691 15.164719754341563 11.991748971787777
Na 16.54622489812474 13.637712058345475 14.712692073553107
