25
Energy = -24.56768092 eV
Na 7.555781108417042 13.659369615928716 12.071678631837196
Na 9.078223805730383 14.817557918305994 9.370137667104483
Na 7.916164902985748 10.850734147838118 13.848935640789795
Na 9.812826941085152 11.376491969848512 10.738857815606183
Na 12.261294740927113 16.25091376904784 9.589933924434211
Na 9.007204110341378 14.761199361594022 14.900524971732015
Na 11.682114057885576 12.90841853174634 8.292622324328748
Na 11.21394354905141 14.19667621750427 12.234090019496396
Na 9.396219499896564 8.73812782364605 16.011590629469943
Na 10.597969060801663 8.64509100351168 12.58396024578473
Na 12.56168092836598 9.601163523608877 9.583764841200185
Na 10.819405259255344 11.9306128399192 15.253443486102958
Na 12.254530765192134 15.217964006566232 15.543272392985381
Na 13.057751004797122 11.33878077802068 12.569106890458828
Na 14.896756182077246 11.635201896457266 7.752135938238571
Na 12.714386958861747 9.001020206832953 15.313093307230798
Na 14.307239722196586 14.908069440898222 7.139449760418934
Na 14.13899310433239 16.201821845361785 12.748022788318414
Na 15.682807083972161 15.575679368912374 15.917261670708431
Na 16.121438490062506 13.281954388430394 13.321621966309571
Na 14.597090001208917 13.76704591179919 10.37367933499643
Na 15.954165636012313 10.551812879240632 10.79449528387151
Na 14.00391308229006 7.702561815304567 12.136579762604397
Na 14.185278296716996 12.348765252734355 16.007985366362785
Na 15.933425500304656 9.841026663061863 14.249888471868948
