22
Energy = -21.62080813 eV
Na 10.888435 10.888435 7.788742805517642
Na 12.686837411583086 10.888435 10.877962213876675
Na 10.888435 13.85398527547125 9.959590622516755
Na 7.785758625174965 12.754950739672655 8.322695376769943
Na 13.991111374825026 12.754950739672655 8.322695376769943
Na 7.785978015693833 13.943192292389009 11.874712257676451
Na 13.990891984306172 13.943192292389009 11.874712257676451
Na 14.018770178194748 10.888435 14.018401186294591
Na 13.990891984306172 7.833677707610984 11.874712257676451
Na 13.991111374825026 9.02191926032734 8.322695376769943
Na 10.888435 9.022602521355335 13.36886545043411
Na 10.888435 7.922884724528754 9.959590622516755
Na 9.090032588416916 10.888435 10.877962213876675
Na 7.785758625174965 9.02191926032734 8.322695376769943
Na 10.888435 12.754267478644657 13.36886545043411
Na 7.785978015693833 7.833677707610984 11.874712257676451
Na 7.758099821805254 10.888435 14.018401186294591
Na 10.888435 14.369838302688075 6.567179912715202
Na 10.888435 7.407031697311924 6.567179912715202
Na 10.888435 5.506120933050547 12.522684607834137
Na 10.888435 10.888435 16.337829171199143
Na 10.888435 16.270749066949445 12.522684607834137
