29
Energy = -30.06784957 eV
Na 11.82708954011986 14.012576025852447 7.262282924855805
Na 9.50766783351039 16.589112385929194 8.117681981041645
Na 8.327089407745449 13.172605123685017 8.350479638852928
Na 13.116788942529896 16.6271764024679 9.54518301918686
Na 11.363495533226844 10.922774572833331 9.581544396880581
Na 14.19852398082331 13.211173876341572 10.136523503996223
Na 13.094925572074334 7.628882524012811 9.937425439991594
Na 17.458554960648588 11.682811404431636 11.494148701098876
Na 10.646778255386529 14.325881318118238 10.509129926995515
Na 16.84376589013791 8.030710078538398 11.225356572068257
Na 14.230178926110767 10.141363067590538 11.801358514330344
Na 7.236467980952423 15.192943946738962 11.163847085626024
Na 10.015431347041986 17.524788431449668 11.50913019076406
Na 8.379674116685216 11.73134254256636 11.802165426101942
Na 10.878428395365392 8.856531341899585 12.614336822367036
Na 9.489880280093585 14.804698517581604 14.060485766493064
Na 11.759122503567248 12.220401465925546 12.973571739076817
Na 14.127896669660846 7.055067272658218 13.446865158190596
Na 16.451745499088542 15.260411219132912 11.934086844113233
Na 15.00790287405347 12.841907303024673 13.93889105500317
Na 9.495272330874382 11.320527363661864 15.429340841766416
Na 12.34362309552386 13.556456718474887 16.188254783380728
Na 13.045783221508682 9.851117374650366 15.365594069060412
Na 6.360195876962625 13.394201178038447 14.194679280205225
Na 12.999632623393873 15.59742071817803 13.044605319919402
Na 18.22891009828943 12.878978678488926 14.804491955259266
Na 16.655992757446285 9.60816671555509 14.476811530384733
Na 15.459477138244683 11.709132203985636 17.23911650207933
Na 12.08405006683305 10.885185946088304 18.486956728809197
