22
Energy = -22.20948637 eV
Na 13.063449569987348 7.957463143727154 10.23256336767669
Na 10.303835534687423 10.101380477981815 11.359846271162315
Na 16.69441719262991 12.705254986967239 10.85095617589626
Na 12.821990061757253 9.172111666122415 13.857814952424809
Na 16.016272372563645 9.397897308140754 11.90616124013554
Na 10.34446107167667 6.786450872329516 12.455435303708011
Na 14.821516576792925 12.322387299614384 14.189847403831823
Na 9.363051246725941 9.557903315630245 14.721280316832761
Na 7.0539489037793395 8.861966904066204 11.590875236273687
Na 7.774706174351318 12.24262285959538 12.690967956506599
Na 8.04758071998522 11.145308841222043 8.802000300928794
Na 7.080569318921945 14.437587110143593 9.955022434721338
Na 9.644570175621912 7.7243104859158835 8.858244021381871
Na 4.93573630823739 11.575304874064626 10.597504147576318
Na 10.544253758320318 13.526223845487166 9.84026947555141
Na 11.613317917943236 10.607839986501038 7.925771357081733
Na 13.414806672073393 11.560593495101692 11.088065155601182
Na 15.18786864036576 10.261435162331102 8.321993277859443
Na 11.229797075105571 12.550993016058433 14.101698890361813
Na 13.887128249234735 13.677363923939087 8.404413147682956
Na 9.488132756472881 15.355607663743083 12.648016032571023
Na 13.098806953688285 14.902209761317488 12.031470283311387
