26
Energy = -26.28844834 eV
Na 18.867104613788687 12.411981533167225 15.093052241487603
Na 19.097967585150666 13.312326715155168 11.638928015960698
Na 16.041591415868435 13.270450752582908 13.325031811907351
Na 15.208908832448992 11.065864294791275 15.772974012905292
Na 14.022653358886753 8.221064724779671 14.380922462382934
Na 16.286292538594623 14.35356191361736 16.750768115397
Na 17.895790894463666 16.013945833529416 13.996463999004936
Na 12.81460335948099 13.548449308875966 16.651439319010127
Na 17.359792851057968 9.715447705253323 13.241539281077513
Na 12.128335644745022 9.99103465639495 17.315615332136584
Na 17.153175738044116 10.882052517008757 9.848436556115393
Na 16.025534288417482 14.19604090741152 10.011835631101738
Na 14.196158113184772 10.756120456739042 11.835002655366202
Na 14.167545126434653 16.767529503921324 15.349770666763579
Na 12.873470978831675 14.165080211779204 13.149621822387028
Na 11.551909974479793 11.084698136554625 14.189247739811657
Na 15.013676302466424 16.85055882095094 11.969119110709684
Na 9.382137907247134 12.537625315638264 16.71496145008894
Na 10.494642792188927 16.15749437509356 15.944613148285129
Na 13.748096343274975 11.943355276634716 8.559571979591677
Na 11.002847246966438 12.104531835968803 10.792992784855688
Na 11.464675936860454 17.437490846020605 12.700664665960062
Na 12.53235615979156 15.21580922927944 9.830872522823434
Na 9.307457431465489 14.227971899780284 13.185661616806058
Na 7.118270281695749 14.994917801921646 15.8515688418828
Na 8.120480402439568 17.612555413303046 13.603948042616448
