24
Energy = -24.17111543 eV
Na 13.777395563122798 16.825433131266244 9.147445661074945
Na 13.740525116164074 17.17275129267712 12.813787131213278
Na 15.755362623556598 13.663252512275054 8.519847562572632
Na 15.339094678202589 14.101617109125446 14.502562593396659
Na 10.779045953424745 15.942393910820952 10.99677885574084
Na 11.722500955167448 14.588468991757082 14.2984740879734
Na 12.086090621248578 13.852481047702526 8.037246045951516
Na 8.579701465285977 13.781443915939542 9.211245861737547
Na 13.911617635796595 14.072910520403147 11.338476990482597
Na 16.432849754400163 11.680236724689195 11.971911775420898
Na 13.397462792172664 13.193409996276317 17.256219221055826
Na 13.187149185779969 11.292155696925397 13.636072459378596
Na 8.452586599614415 13.656916546965732 13.146037614510288
Na 10.971079027168836 12.33296979990624 11.243715050829902
Na 13.858613511320907 10.801571763931424 9.611729758276496
Na 9.817071818012407 12.898386477064715 16.671852395007864
Na 15.031705421479277 8.481865915592792 12.150593353703751
Na 15.515287550722627 10.099641191836234 15.676533619053979
Na 10.456485613251509 10.659688017464475 8.175700686081527
Na 8.075180413815792 10.558908716338365 11.042087072823263
Na 12.643598120694914 7.834470382986091 14.644117794040032
Na 12.0851864711703 10.082213008903931 17.226423945945236
Na 9.835963117511685 10.374992012228791 14.249529222371583
Na 11.449466866353765 8.77554077582789 11.324532628364066
