23
Energy = -22.22770969 eV
Na 11.278870424307856 16.509376626291917 14.668744857960935
Na 13.89387553537862 14.697708022551712 16.12239083077275
Na 13.47262531675952 13.741444935009524 12.809736405780434
Na 16.459658065218015 12.557355421659011 15.111742705871698
Na 8.04110954517694 15.151666541896006 14.976555198759266
Na 12.56135921706597 16.793148448560267 11.424838280685544
Na 14.830822025274419 15.138515453677053 9.35394605752859
Na 16.786874818489405 13.570857758025687 11.786127308786362
Na 9.80924846308469 14.561610999943994 12.126356800739693
Na 13.276854812916596 11.152152702056538 15.609946349056822
Na 10.735090272707366 13.105810773209148 15.372189181031485
Na 15.97874192405151 9.090616760108816 15.671259652861982
Na 11.544475085270122 13.88792514841797 9.508730727101096
Na 15.278469893137272 10.380970366689843 12.609202814896918
Na 14.464811035032483 11.660545219115885 9.768751394109895
Na 13.475223774083645 13.058114016365323 6.8321079101858295
Na 11.505987629216278 11.10120255799081 12.180487704292526
Na 7.9472189402320765 11.924724970406354 13.555774319750393
Na 10.099209816154671 9.593808010746645 15.005777907128707
Na 13.047507705138827 8.0219180892765 13.997025314567935
Na 8.726616539641796 11.755697886326267 10.162912040569502
Na 11.438041953528488 10.574034073576781 8.313689905142288
Na 13.071824437180744 8.442313228740042 10.536480833871776
