26
Energy = -26.59752346 eV
Na 9.72784577135903 12.191482929662007 6.441206901992836
Na 8.715167824178714 9.868268822240287 9.035405775924186
Na 12.333854771577165 10.028223597295348 8.50470624177453
Na 7.12412059422963 13.28829971574786 8.746242805775369
Na 12.938020799930406 13.814521927303295 7.61775056396937
Na 15.913070837205039 14.660887378438945 10.220224685367821
Na 9.804946620752625 15.610251766278285 7.775975701916341
Na 10.383186196270442 12.839013388300529 9.764997824570527
Na 14.409352158318361 8.873294987895987 11.380478067391786
Na 11.305594711543005 7.102137825263284 10.477367598073696
Na 13.727159526179701 12.243720710540325 10.800792838293418
Na 12.428840169355704 15.711278669041265 10.72314007486171
Na 8.578951751073435 15.345367282964387 11.37351379745382
Na 10.93993938696027 10.042173405063934 11.928011095282313
Na 7.986104550933737 11.854220687932154 12.351924203890285
Na 16.694685566405376 11.751287437683615 12.842198259724748
Na 11.176584479142711 13.553726059636551 13.16242489352751
Na 14.480165358527431 14.573652852337087 13.59500944755245
Na 13.529760513014892 11.075206498816204 14.14511554263745
Na 12.525772849142909 7.752128937699936 14.301636991799759
Na 8.6303922153989 14.080074183531877 15.204154768398679
Na 15.938086647535934 8.757917253998578 15.02398836586261
Na 10.064767334516244 10.695666103977917 15.230791947109129
Na 15.950909852385447 12.160347026354016 16.365558937033033
Na 12.332103775048791 13.245847002190237 16.585352956178777
Na 13.312729833026243 9.833117643817056 17.354143807648803
