22
Energy = -22.30041514 eV
Na 9.653769870831146 8.476783469247824 6.694075975198679
Na 13.49616343949079 12.356611729725405 9.118111163457074
Na 9.93851927517139 11.221636604487497 9.139835485818963
Na 12.586254612417198 8.890914720031684 8.39025305843841
Na 13.843286038222637 15.443963598778428 10.903673675295712
Na 8.065902538601616 13.807601290322543 11.029312340236672
Na 10.848724763582107 14.819479646195704 8.851515020188003
Na 15.607850167093131 9.90052362073275 10.628724300617554
Na 9.677402865478362 7.9385267523004845 10.45032006846332
Na 12.335848914966014 9.903520568477727 11.723896500717641
Na 16.730696949756876 13.380009100937693 10.045442209539042
Na 11.364220405292901 13.125563418894632 11.920851023342955
Na 10.367151465999559 16.441084739651117 12.088605907407759
Na 14.797333658060525 12.550226487843998 12.87129360156757
Na 8.922576501369637 10.66814443590878 12.684952652480819
Na 14.37742606736069 9.446026302147981 14.543291162513428
Na 10.864049608920864 7.974243858947672 14.04732324820698
Na 12.80666223857897 15.077595668835642 14.50222847694552
Na 9.257110009853164 13.909464930672208 14.617077671261347
Na 11.585771870807411 11.379478662664068 15.190263485266042
Na 14.678153324266471 12.74263971507245 16.427131360637244
Na 11.711264498835344 14.062099763081362 17.64796069735777
