21
Energy = -21.05513115 eV
Na 10.093804890918165 13.361825365810251 17.23093132769862
Na 9.620167956440415 16.482836778591768 12.316866981432154
Na 12.005047222066308 14.768159108003163 14.669304657927738
Na 8.769948447324534 13.350709264703074 13.872360511269108
Na 13.387227356562025 16.471752282622028 11.816379479727091
Na 8.122921505779772 13.712960404053545 10.368361607213211
Na 13.702779040432173 12.30153946215015 16.610903320380967
Na 10.868292525758637 10.68288263818061 15.031482631027428
Na 15.512590413517954 14.337017445394283 13.921767236937134
Na 11.468256492431347 13.604093696072438 11.385871636122445
Na 9.763976687538381 10.64107526201291 11.553342062595348
Na 10.63401129533308 12.10408695795364 8.344872525297793
Na 14.039897727047258 8.933521830888367 15.478942855725716
Na 13.58989269921278 11.580178418585254 13.164313195364684
Na 16.650943375477013 15.701289675235358 10.804544125875914
Na 13.95911992717864 14.03903428163084 9.092449883362605
Na 12.236052289521382 8.244314300103087 12.457229752477762
Na 10.84035688762133 8.356911023208907 9.08171125106023
Na 13.466445702681355 10.528913851608948 9.838174764201957
Na 15.760893973635836 8.804260710718173 12.287080401688778
Na 16.387537116270995 12.226148166664183 11.07525505499988
