25
Energy = -24.76314425 eV
Na 9.192109301416352 11.713545737247445 9.016336771077691
Na 11.404450219035178 14.090598876291462 10.505833934609612
Na 12.53332609905235 11.3676397968277 8.605844212967597
Na 8.414658723489701 12.94480955417157 12.061547064096606
Na 13.674060780982934 16.226086968868284 12.08701711006285
Na 14.755440063614202 13.58884811631484 10.160622279353905
Na 10.548862098183017 15.491771896210613 13.513348243069116
Na 7.5291372490765145 14.367348042625958 15.009325666633316
Na 15.819986472614243 10.766725998703512 8.361675398448497
Na 18.09089648940779 12.81404040540428 9.864496835682445
Na 17.126711309955823 15.974950767375876 11.013357924419259
Na 11.039416535478919 10.551547333898451 11.764715249214929
Na 14.729517451509833 10.262157131159645 11.600873389843496
Na 10.30925202720728 14.76808473057112 16.935428322735785
Na 13.290941376643655 12.869626110674684 13.490850132305352
Na 10.027000318874526 11.876344121857056 14.904372218659162
Na 16.52597017681026 16.220223636455557 14.312023465784545
Na 16.916558693999672 12.944072582356023 13.039320598590752
Na 12.339493083704065 9.329574560073436 14.532967299247089
Na 13.296504647233284 15.855230856066218 15.509679222766692
Na 15.593901553570497 10.47053982923737 14.958151452760937
Na 15.944764280385428 16.570099488595528 17.670249024823818
Na 12.852806919471846 11.945780274246065 16.86701401318168
Na 15.936604541369887 13.44431073200511 16.395105411643783
Na 13.23009691624841 14.819027425665 18.80632391948489
