20
Energy = -19.30110262 eV
Na 13.816587748121114 9.726490044727589 14.058847104655714
Na 11.0905911435764 11.660969609061821 15.566192159731267
Na 10.69804610374377 10.332768811136786 12.55618717033087
Na 7.858032723527946 11.89564891535413 14.244629684457157
Na 13.463701168209141 10.3649088451854 10.607190777857836
Na 16.57757931652715 11.221911728720855 11.593003026671772
Na 10.285756246204741 10.182180728254238 8.91086196562147
Na 8.736507792627945 14.514022258215277 16.33062263128573
Na 16.20072304455205 11.24658532980541 8.176334459309514
Na 8.113479860595806 11.858744846666099 10.891884312670326
Na 16.69857097922799 12.437777017094135 14.600786033385384
Na 13.382391484039342 12.921195089391938 13.153184364580998
Na 9.945843023677709 14.393851311623601 13.0857354655566
Na 14.712528611023567 13.883744405366855 10.09660974214999
Na 14.169421525012172 12.261753077084313 16.70950423079584
Na 12.865858161283928 11.932758737539134 7.511004603793787
Na 11.29840704741268 13.4104110144499 10.23300178780445
Na 12.780418709909474 16.039145653752946 12.019671489596409
Na 12.12569097055265 15.215585963853153 15.691142891534447
Na 15.336980146350095 15.606505802198267 14.580547629597934
