28
Energy = -29.0205834 eV
Na 11.218923260652094 7.404451597504655 9.26152094478625
Na 13.18733503483592 9.532746595284557 6.952594183255894
Na 9.609456628657979 10.221175928180791 7.28953558983143
Na 12.288898205033586 13.095082146736774 7.212923293132145
Na 7.809910025174919 7.366297367613515 8.54786638172377
Na 15.198587244300898 12.398056162271297 9.164932151934746
Na 15.114640592471105 16.304081562894574 9.34601885725242
Na 8.73885802502187 6.7502260536033365 12.030367740040417
Na 13.572940307620694 17.314861999346853 12.68831568355533
Na 11.936573915377966 10.880761658159265 9.824157059365072
Na 14.466724845503698 8.587388955031242 10.382715104561587
Na 9.349023426315002 13.419209331696214 9.76972893244041
Na 8.564041683145092 9.99940260215396 10.772710484617233
Na 12.652676011178668 14.394991155584664 10.676041522838203
Na 10.103124666516845 15.697096814303816 12.799193301298173
Na 14.293615209172389 11.503039879707389 12.502488730412653
Na 10.80192387916428 12.163341321688671 12.791383062612413
Na 13.118275399923723 14.336612584587762 14.39807875424811
Na 15.944837964280858 14.611598580910483 12.298815117660059
Na 7.533753249441227 12.973272232979019 12.887187144694453
Na 11.79508931360569 8.645195449654853 12.754920602008413
Na 11.682596567309783 16.950703219650784 15.976597750829708
Na 15.710202768011253 12.499467250068108 15.705693292630555
Na 15.121474604359504 8.806938374015324 14.281511848914157
Na 9.9459439711883 13.598735169839774 15.918361188958272
Na 12.45598739036272 10.916009896618128 15.708647314939478
Na 8.855005724851287 9.754237261746512 14.374540737076439
Na 13.06400239694235 14.009441158587713 17.817575534802927
