27
Energy = -26.94948461 eV
Na 13.187121902403849 18.568447863061305 17.080445897479365
Na 14.15998596406584 18.549295454267035 13.825557087617753
Na 11.442010171261934 16.45007784771559 14.934537481002396
Na 14.56111722019938 15.298802288568707 9.274779667675565
Na 15.040888400615188 18.512954537001484 10.516637616615048
Na 12.385576547262959 16.502710692611235 11.652009839503604
Na 10.738546393327963 14.76905779709683 9.061433910188288
Na 12.60845206242962 15.392682124022086 18.173625644228903
Na 9.910503052301424 14.457186545116476 12.625952831535042
Na 10.63821153867803 13.253244305575324 15.849261194121576
Na 15.167745276411615 15.831899936738358 15.850820470315622
Na 8.917272021775696 12.105385898160632 10.319044858745427
Na 16.10168654736366 15.868283145138589 12.547637726948032
Na 13.388983807025038 13.479463433010135 13.678551166474177
Na 14.54885073413533 12.738825866586842 17.04020726439462
Na 11.756375494114437 12.078670169884392 19.01330315063535
Na 10.587871559254973 10.95211903528383 13.062927912072091
Na 12.546182788317491 12.143928708223202 10.441918283758284
Na 15.060838625971135 12.316200924389138 7.841214989122042
Na 15.91851101120086 12.706060647020553 11.252009090669118
Na 16.924502746741435 13.119005749797767 14.537471619221884
Na 12.230400491619648 10.13379942811315 15.92877254639527
Na 14.175440509368467 9.678570351896091 18.797264879603016
Na 13.85070166374178 10.002343477643963 12.826772906651353
Na 15.74673593551782 9.834607000823185 15.688301460039238
Na 15.4194807514409 9.586765454429367 9.83046273979164
Na 17.41826457152222 9.925133505357122 12.750407087486874
