22
Energy = -22.30228452 eV
Na 14.495156148795049 9.40825234623083 10.764062546206453
Na 13.627973201120513 12.829041061802656 9.348154587859321
Na 13.983190346836935 11.994290796941693 13.057026048063195
Na 11.897290772222402 9.945714991007376 8.196414766248717
Na 9.982265929907257 13.113029880838054 9.102909157122411
Na 11.552285883704098 7.336271573486346 11.076841165146265
Na 13.006084094940386 14.768472486457327 15.193531508210128
Na 12.02114606206981 16.078235407756104 9.379289485193237
Na 14.046100359583793 11.550878347719964 16.48697497672264
Na 11.18436381692378 10.73799251546703 11.465584897291931
Na 11.37137182435449 17.50261696734145 12.779142693418756
Na 14.643275845317035 15.35415880202468 11.860005291796872
Na 14.460400985899035 5.960629309171381 12.25295803201295
Na 11.396861996448218 14.084519429870257 12.164873745449485
Na 8.299243194461496 12.490112227468806 12.508320367368459
Na 8.694673051215851 15.98722410883958 11.162429070978655
Na 16.7220549812459 12.514441997959388 11.023357082416277
Na 10.79478719156652 11.806248503334563 15.136488968187942
Na 12.882390873948282 8.832602728342518 14.063072270358942
Na 16.458028211725342 13.744786567730714 14.587179542552072
Na 9.223929089644779 8.981456238255888 13.69831304658207
Na 9.358111056747077 15.080008630631948 14.79405566949161
