24
Energy = -24.05089522 eV
Na 7.892504548819024 8.581435671449265 9.87329582182221
Na 8.604364662970767 12.346467671279061 10.147351111010801
Na 10.375159927723423 15.643820868728826 10.793777260913181
Na 8.5651527670343 13.870346939628412 13.499783546861133
Na 11.307719616719496 9.844404706936528 9.908780310087515
Na 9.026024294228002 10.169566628953808 12.898151290278058
Na 9.611521847189657 14.965735894306126 16.934924610916646
Na 10.994201682239567 12.063744886543013 15.585420586624588
Na 12.144194208845175 13.205099903952856 8.736253561511655
Na 11.50428801668538 12.652689652733768 12.123305649718795
Na 10.576994304898408 6.956700923122317 11.510734579390109
Na 11.85930947937201 15.630676284657435 14.220724757155027
Na 15.812618068572245 15.967405341943024 14.849680482960508
Na 12.617417137211088 9.598493800831497 13.528190120866762
Na 13.067933783067794 16.56683946514508 8.4204034717148
Na 13.430716372832686 14.473688999422514 17.150515686149514
Na 14.047970555146089 15.193742449327024 11.49483046637555
Na 14.191665192049117 7.787139963155433 11.140255276885894
Na 14.616020235128977 11.4002963057828 10.749616116412032
Na 14.338729304838898 10.867385350617662 16.724279598581543
Na 14.37283555364227 12.917127791677878 14.111250594381792
Na 15.822972333199129 14.055939693252114 8.691576747317114
Na 16.235244376829964 9.966888532009289 13.489079836209593
Na 17.21960650464593 13.598460073925558 12.313969479611504
