21
Energy = -20.4457036 eV
Na 9.262390911602632 16.501243330438903 9.48353655421977
Na 8.346864975010936 13.224318741133969 9.978101571072457
Na 8.916771750787063 14.85806850725196 12.965374313494241
Na 11.555188049447109 16.947248247852823 11.934954752995397
Na 11.881143994480631 14.096126421114594 10.003503774285958
Na 10.573903186426804 10.719655763262153 9.458854511505628
Na 10.012870111704919 11.543572663448805 12.675517244785873
Na 13.692427864892599 10.992479926198754 8.434774990705389
Na 9.26539990130435 12.852285737559386 15.906320368196017
Na 12.01295305905522 14.266255426232021 14.288853290723354
Na 13.490506064379565 11.937647966539119 12.02539586177817
Na 14.549168458301406 15.211713757592433 12.320113345005984
Na 12.24150650310989 8.748182451545729 11.986662735326764
Na 15.092256336571868 12.930017434382881 15.145153492187315
Na 11.902153151543395 10.48611600319914 15.124954575053833
Na 15.556064187818254 13.601057174165993 9.480863121225244
Na 12.48950237319676 12.914754505475644 17.47489588239411
Na 15.770390032670337 9.551710732448733 10.710790663553047
Na 17.052935825116133 12.360099195290188 12.392045357675894
Na 15.053351307887102 9.518048241507834 14.09314581090897
Na 14.507286267596244 10.099051564678074 17.512929770294647
