23
Energy = -22.34922257 eV
Na 8.752436339548579 14.902046674135692 12.335867664159505
Na 7.90664084634383 13.511168736118773 9.204410686335121
Na 8.851825255411752 12.613189338592388 14.889437805315396
Na 9.501431969465783 11.538513175697549 11.691025026667516
Na 11.687673948273556 16.64218022297278 12.132263843796007
Na 11.529958533537556 12.077422529218772 16.77858482202235
Na 11.156428294150903 14.233013937643035 9.77866529331246
Na 10.836313053928846 9.692242633467274 14.29502496511418
Na 11.04082138525259 15.432666219184203 15.463100948592013
Na 10.347439450500994 11.086556950194755 8.415908340455424
Na 11.880092311458085 9.082220614101873 11.050514539817538
Na 12.293490801888296 13.00467715031647 13.194199540674166
Na 13.27172981062413 7.2976973013082995 13.661893349523975
Na 14.398890997421795 13.672735862252697 16.4360755002587
Na 13.587851292916218 11.691907413173357 9.493721252609484
Na 14.43531057521795 16.12293198535791 13.996701146386432
Na 14.111796175583622 10.257708804537854 15.223107641593371
Na 14.31965624064581 14.789134322938217 10.796842307342796
Na 15.230539701250565 9.632485119173289 11.963703703570095
Na 15.838434880662827 12.659293760001127 13.49205543298479
Na 17.4542962984366 15.124045600692817 15.61896816358162
Na 16.880053066337364 12.244606445737793 10.253357083384293
Na 17.382267691492746 15.39890103843584 12.087485030541446
