23
Energy = -22.21416296 eV
Na 12.498037562172017 11.72447694954712 16.688883153281367
Na 11.020510619955909 13.926013876396523 14.431667626887103
Na 12.019799855875508 17.144566339045674 14.665853232006224
Na 11.488834071130048 8.900786518489731 11.8788649045371
Na 12.394192304292737 11.185548360167111 9.484993825351927
Na 14.400901623412338 15.588034386694611 12.608080335776629
Na 17.78769671284769 13.575419979549 16.413123515542225
Na 15.280295191449282 12.672871994347185 18.44773645685167
Na 11.85113337432082 14.41981041909782 10.392976948518568
Na 17.54328856732715 15.835423977383511 10.775936841882121
Na 15.0814090557023 13.257689143519318 9.928341737527415
Na 13.43279584566818 11.946772223307724 12.795924954737414
Na 11.931477579420774 17.725787577236844 11.32335415505079
Na 7.932150147763411 9.190998893111043 12.31776802436397
Na 13.381488545125675 8.901919300670745 14.539231093883226
Na 9.563512244845391 12.225984289121223 11.621791389718885
Na 15.755636558983623 10.986372770246764 15.39070092733156
Na 14.465489833361369 16.621341171201706 9.388622215754424
Na 9.400563824758887 9.489324030277666 9.26305118560638
Na 14.320296312206677 14.570526435920597 15.768752729299575
Na 10.1094759140643 10.537601693892283 14.627041608082788
Na 16.887895970825507 13.28586614109482 13.068479695622733
Na 9.198850643608973 15.830214878202298 12.167250549215618
