20
Energy = -19.15062674 eV
Na 15.978766913219266 14.24971147048517 9.786174258029751
Na 14.085907585814486 14.04934665883683 13.16293925613892
Na 16.20891919775302 11.326741101350352 15.530337885616293
Na 11.330485007394898 16.17412764502527 12.690466576363553
Na 16.84171902086075 12.23014704133846 12.310999491211069
Na 12.534893278701956 15.06480894301011 9.900174301937957
Na 12.912643397617195 12.136192116003304 16.058617949960944
Na 13.506283904474701 12.978254576108403 7.344022250720919
Na 11.413506765053096 14.99977517271106 15.734555484840529
Na 13.910516852075558 8.83238364429675 16.4032900157995
Na 13.805992915057407 11.583093362269995 10.411333264483265
Na 12.157924676418912 9.767838539582923 7.840566790042418
Na 13.942305285692553 10.050376662272642 13.221196481492608
Na 9.37128235541948 12.1201974465914 15.955790706395312
Na 8.944969858356947 14.859616194423996 10.659102015824168
Na 10.864765936494837 9.357528709396242 14.845330334659298
Na 8.27787230698507 14.458214975319835 13.866931030485611
Na 10.9503507645625 12.545063787868283 12.706096339378208
Na 11.171781641036315 9.351422835134581 11.149742279063485
Na 10.327259376507213 12.375479137613853 9.001423862964074
