25
Energy = -25.17101029 eV
Na 7.103399794091348 10.138484497041892 11.92259361705903
Na 10.160711935273468 10.973980700026091 10.084778674921022
Na 7.2605793309692706 11.725639525627253 15.336196870371344
Na 9.975005198698039 9.991746806469493 13.640765595038824
Na 11.37649239887211 14.361601544718308 9.879622530459903
Na 14.480434666121154 14.827984258729833 8.072391995716348
Na 8.95210564034793 13.2549883506778 12.531239317314101
Na 13.648976531810385 11.602742753943883 9.239069485818469
Na 17.55595413599392 16.44223114239741 9.476628585131312
Na 12.697346177962597 12.56859248554057 12.547364641518014
Na 8.18677936573992 15.238668649411457 15.749384058619285
Na 12.711420497756496 8.912818050893076 11.625721739223378
Na 11.429424657190527 15.66962298365527 13.508921525717776
Na 15.882972523966021 10.426864253327722 12.008542871381966
Na 10.635260774871837 12.8143408317557 15.753156913203362
Na 13.254985023993008 10.26589607343469 15.084441606821143
Na 16.047836552973475 13.598991440545113 13.659453581720182
Na 15.35253244601247 7.6374379873799105 13.964665227973777
Na 14.422050901294881 15.812839240569646 11.409369572947458
Na 14.633447854565755 16.680960753437535 14.929074030480528
Na 16.866363239899385 13.233939079506111 10.21624966604109
Na 11.535036210669782 16.180030489584162 16.889195598621892
Na 14.045394889322262 13.542672804097124 16.4769244842499
Na 16.567600270199257 10.736730117741875 15.655126559558317
Na 17.677802913812748 16.60680946851845 12.974969755348539
