31
Energy = -31.66933997 eV
Na 11.23412021175797 8.972853897146603 15.647039135696216
Na 14.765706614142148 8.835102616065868 15.235876985223847
Na 18.183097377844646 9.586398061452066 15.797084307537606
Na 15.746184922571052 11.578954074043546 17.35666262846169
Na 12.248432313339645 11.280468925615489 18.164027364654256
Na 10.075313028469685 10.959192202120489 12.995030550698127
Na 14.439111961346152 13.243126150757567 20.17538418562259
Na 13.420199688699592 10.198711017234261 11.880565100199345
Na 16.392971610113896 11.345270721759162 13.442536474564783
Na 10.165007622038347 13.358886467200074 15.699981827182699
Na 18.484231626231804 13.032621296707779 15.617239656167923
Na 12.075529301089565 12.084542761238614 9.194010859314222
Na 13.127603261031398 14.531008541728811 17.272668308125034
Na 13.172018025676055 11.921604786552134 14.84697199461229
Na 16.479624451443907 14.99554954061553 17.974605663576295
Na 11.866376357989575 16.286789533574957 14.717770140910309
Na 15.1102604380816 13.128307121885607 10.904920670880585
Na 14.818111773460643 17.50928745976458 16.237568540839384
Na 18.0814457648412 14.320819099083888 12.402704698296901
Na 18.319881914460847 16.50927494798689 15.41900433833043
Na 15.238869570880732 14.685752849103613 14.312112086160223
Na 11.910200108193525 13.741896186623194 12.268677412443832
Na 8.898811004002177 12.98133057782551 10.346556154553777
Na 8.83725978201392 15.239374080096718 13.011509147221911
Na 13.872182433051087 14.981277638334465 8.335297057978726
Na 10.635286425669758 18.13258050789069 12.138752714281043
Na 13.475858480813162 19.32830851083171 13.646498792846845
Na 16.77305652524951 16.110959982687397 9.77280643876938
Na 16.665364047612023 17.95636304850989 12.821236248526638
Na 13.735235008499915 16.54445283968052 11.507451316242472
Na 10.72790970772298 15.812101284029913 9.55248396325938
