37
Energy = -39.56834574 eV
Na 13.524812061453563 13.346484596837401 6.373420211990453
Na 12.495933312961574 9.776758912328097 6.752022614782444
Na 16.051361762403562 10.875503742401834 7.463925934887262
Na 10.129317990519608 12.548837044716539 7.858223403803039
Na 15.9547952505235 14.463090666799763 9.057777057692805
Na 13.38425180044002 11.880925834940781 9.263373656717047
Na 12.268162947426292 15.484355570932015 9.286065563774335
Na 14.347918952288193 8.435971314592601 9.85350804630261
Na 10.639299423359054 9.416015140882164 9.952671513672396
Na 8.70797200663378 15.607333158991652 10.69097267350203
Na 16.572366188881276 11.28200531943427 11.166053856846618
Na 7.7583055935508805 11.686849363841054 10.49897333538949
Na 10.763792149265207 12.860217795629758 11.329811101580182
Na 11.052810316103745 18.6132117301193 11.217267313473256
Na 14.555301537110635 17.42948755332096 11.55968317428917
Na 14.252432988989995 13.927029022115375 12.014691949492533
Na 13.215415769634928 10.54315383057333 12.327343015298638
Na 11.950904067764059 7.428610223050931 12.977414743923271
Na 17.243864229647315 15.32365040884602 12.767925878860762
Na 11.553567315324594 15.908764412596405 12.945994720974108
Na 15.719820365766177 8.568083818092836 13.689261064438746
Na 9.58303517762634 10.288517046051608 13.492710069298914
Na 8.637525047129179 13.91989138604819 14.106986265665865
Na 16.39151076776443 18.4888216169182 14.420179078371573
Na 8.856493131817267 17.634525017176077 14.002739929698679
Na 15.863461778983924 12.200843935767445 14.696370830011475
Na 12.109169747650377 13.066906193128322 14.629390905155498
Na 12.673817622345473 18.687950731998473 14.619639307859229
Na 12.820909191589838 9.985092339287386 15.535183722801595
Na 14.562455278785494 15.660782850039816 15.345704573846549
Na 13.569750404394227 6.881043924170241 16.375819132689198
Na 10.024375507118537 8.057214660837515 16.297121878288884
Na 10.959179329561506 15.699363963222975 16.51683246295965
Na 15.769135648728007 9.712941525992024 17.344352135586757
Na 9.918091631711587 11.801147059796506 16.98530366508887
Na 13.658870010313267 12.894459162678139 17.71389693613487
Na 12.361455586547494 9.51580101795817 18.773030166964475
