38
Energy = -39.74654 eV
Na 14.271933330758378 21.485621413331348 12.871657390947178
Na 12.559728580112196 19.27830686684541 15.192494435385278
Na 11.185579684025603 16.564165939690483 16.73986242547717
Na 14.647197221474295 17.011310264167356 16.925173108697155
Na 9.902204693149764 13.80120477634111 18.13100663660434
Na 16.160354012017393 19.055774557540495 14.409928881384513
Na 13.364702197108777 13.899121829443029 18.247796867273777
Na 8.753400668391604 14.26498344136204 14.759315244243261
Na 16.594776833510636 14.911309136506766 18.695628716160556
Na 10.313490473186665 16.812731965814688 13.272513454572536
Na 11.901275563809286 19.31512293249376 11.686610981789658
Na 18.181450312636233 16.865543944508314 15.901293504461584
Na 15.287955058077735 18.527586083653976 10.936477910696054
Na 13.90264678436878 16.431856389292257 13.42744272835413
Na 12.223726323367925 13.652406946660589 14.888289231347011
Na 7.998589582935627 11.342528300834436 16.649210366421293
Na 18.960230526095867 13.178842790117715 20.522449551784632
Na 15.886167223995475 11.550664367269516 20.244143209795205
Na 11.520624734174387 10.884342491591307 17.025432888720637
Na 10.55633273186749 13.702369035539917 11.675562554741598
Na 12.372925620501912 16.323946017779118 10.192651736136428
Na 9.996203809122328 10.954676800443943 13.802210567172192
Na 15.727049276268255 13.895146056752475 15.208071928797116
Na 14.870417783615816 10.750811517742163 17.1155727420033
Na 17.363743986966995 16.166834788482376 12.621311431378922
Na 18.16088179574379 11.804169854603693 17.31801140883744
Na 14.208033456335373 13.207813060573315 11.928917465175598
Na 13.49552615598135 10.385530104417093 14.076545789086175
Na 19.935322110906146 14.784834163845908 17.72162597504807
Na 15.753608139440043 15.440138863100492 9.593270484071516
Na 11.913192742800936 10.484753790030048 10.986994755585448
Na 12.526507046027254 13.289893627021888 8.704967215909205
Na 19.15389153776434 13.67472096995223 14.418055208048681
Na 16.98581123779142 10.724960144069295 14.2377411108199
Na 17.689492975582418 12.87239519556807 11.469027435533894
Na 15.45913573569025 9.940670713416592 11.198536542060568
Na 15.996479999443977 12.229704038015628 8.615006635466008
Na 13.485555608537457 10.01756822041444 7.97546315334601
