37
Energy = -38.21512546 eV
Na 19.988750475101483 10.98402970070467 16.138157883807338
Na 22.080266463723113 13.625030105000313 16.232497121895488
Na 17.24805409597849 11.468829416369237 14.19680700311683
Na 19.624533767749387 13.94531466146266 13.757884298570238
Na 14.870218995173376 11.80344017243313 11.924742317156683
Na 17.98248998459506 12.982457072060907 11.038396142802195
Na 15.543203016578556 13.722279526569405 8.72475720790263
Na 16.860938917682695 10.427179350117825 17.556136010937042
Na 18.88748384711237 13.82354695494818 17.73103292339443
Na 20.7130142378283 16.64645620280057 15.63192785540511
Na 15.52977579383949 13.577530898090037 16.70535236030571
Na 17.366494127078393 16.600531206890157 16.462049539995824
Na 18.393457202013646 17.883251056919146 13.251113256062526
Na 14.148620148794148 10.319022483200731 15.358457287755261
Na 16.257810693445098 14.998780679309453 13.496246046780248
Na 16.747026905378128 16.72834933795225 10.313480457506671
Na 12.441858000237387 12.353102555973946 9.626535968909279
Na 14.635763025492286 12.067093754013856 19.82851233801095
Na 16.51162363759306 15.119562043037707 19.759434992338598
Na 13.634203081057517 15.336586637446212 11.148959965937637
Na 12.113986259196219 12.190771863507754 17.49828928457808
Na 13.030176381430715 13.691276950692567 14.292872930701861
Na 11.743316945014676 10.598525805521389 12.894512740062874
Na 14.587252843048939 18.519922170164506 12.287255794659808
Na 13.927824131756848 16.86634552409376 15.667357276801463
Na 13.142521797329083 15.311696251398823 19.05295476775147
Na 10.436465447204343 13.963521433394734 11.859641960513478
Na 9.681919994961875 12.31542917340519 15.095826956052566
Na 13.78464661894246 21.16784944432622 17.486422563754914
Na 16.041484778037617 19.63430204507094 15.295607146387457
Na 15.215490239959667 18.20499590779737 18.666616100905316
Na 11.476126533923368 16.970731229598577 13.19806853222277
Na 10.836034078853494 15.370444426937874 16.48399631264824
Na 8.294530903871964 15.468817823848159 14.116878041295264
Na 12.490707378848482 20.017857547065436 14.507558209236585
Na 11.7441740313624 18.420318448348723 18.025674212804407
Na 9.340864659235907 18.496939979928495 15.480353997557451
