35
Energy = -37.03486578 eV
Na 13.996549449562972 15.243951737276321 7.1136767054875625
Na 13.028401023519844 11.843723052261598 8.318442207099112
Na 10.369142166621087 14.718540724504555 8.553522898142594
Na 9.168673754073373 10.93178389906704 9.124796796728019
Na 16.431809109801875 13.202954190392514 9.10000869601266
Na 15.75829074878172 9.562194999737079 9.394455124803159
Na 12.523698820187075 17.766326538671063 9.283404174240038
Na 16.189740687694034 16.882499693133457 9.869333545871545
Na 13.494657825741829 14.812592352093931 10.41724762761032
Na 7.605308974355921 13.524143599798553 11.374019076722002
Na 12.10064197158431 9.132778809923737 10.737035649053139
Na 11.023160548235078 12.542311298931905 11.257022347685014
Na 14.549428055167517 11.75598889164206 11.678503662973993
Na 10.196474422705021 16.21752899439872 12.013476639857329
Na 19.056226824394837 14.705679452773369 11.050679046920074
Na 8.937498135923171 9.990385928977467 12.737531338804045
Na 17.825771203553707 11.311362242531246 12.497514881158933
Na 16.277944488322657 14.790590182436889 12.93930299335757
Na 13.595841614113027 17.508142198917266 12.7990350511159
Na 15.037414978924646 8.383576837028453 12.698628448518816
Na 12.908987079394981 14.202519364121615 13.77026626339282
Na 11.47892927629697 7.475963757400314 14.2032825906119
Na 12.278622391920218 10.713066963091558 14.092309393919729
Na 9.696735866022056 13.270005260921996 14.328031548664526
Na 7.380855289743413 15.82340751563484 14.451540205579038
Na 6.665776915581035 12.15595425951452 14.793278941382285
Na 14.739072326429444 6.292013490120341 15.288389378923863
Na 15.494323122862314 12.102586553671127 15.348398231436425
Na 10.802384373246714 16.376512291583293 15.654493375878088
Na 17.08439204878439 9.005708156368106 15.501471501839205
Na 14.611788938529003 15.71469691286277 16.13928230703402
Na 9.672814089222575 10.264303306583518 16.381232358327868
Na 13.586310005419104 9.34916722867092 16.93117209545082
Na 12.16144160050867 12.879213174951943 17.04864501046165
Na 8.611410716740846 13.888344983971525 17.451088728902793
