34
Energy = -35.84247699 eV
Na 15.08547379531168 10.735669306446018 6.492117452722393
Na 12.854246659724955 13.839273393687192 6.4923524347008525
Na 13.643460650811578 7.445862688056082 7.426914248412671
Na 9.306315137892204 12.75578086614902 7.279739481634429
Na 10.203505275995383 16.175663838766692 7.94537810137138
Na 12.074170527404377 10.472003638851394 7.978977109594926
Na 13.650143987086452 16.616028762693617 9.383745085205227
Na 15.260124599581346 13.158941157441454 9.186025825333779
Na 11.609853672785619 13.664255051134374 9.656574030967398
Na 15.612617794231868 9.531219789650862 9.816879309856118
Na 8.204022669959674 14.059489375180572 10.639064510700985
Na 12.346016390879893 7.661084202413305 10.872832231873776
Na 9.565763117353958 10.662785869999103 10.511835734955051
Na 10.795499824966338 16.523438178787366 11.850005257413516
Na 13.11611056023687 11.141355356211927 11.382304664288101
Na 16.628984944615556 15.827865285909413 11.36233160868829
Na 13.699507018490696 14.605777311082598 12.309557533085545
Na 13.851982738585834 17.95021757773367 13.052744460541204
Na 10.558293257815054 13.102314191102012 13.061192378161156
Na 16.248394491654256 12.14648733522306 12.623662802592973
Na 11.818793127703314 6.506775119838552 14.675963871548133
Na 7.811245287346955 11.06005259502152 13.725259965883996
Na 10.984376322506675 9.613956281527235 13.732574092802016
Na 14.61527932425382 8.91736878287175 13.749140640755469
Na 9.130321746091864 8.654131020211405 16.456995971039184
Na 13.352065097138286 12.132111524416361 14.825460274265314
Na 11.953423248339524 15.555915558992321 15.466221547816373
Na 15.547212965426846 14.791402836654704 15.335674077027369
Na 6.997048524333833 11.540370825949491 17.04812752008045
Na 8.147847639901261 14.543660763631555 14.99974650436838
Na 12.780793516563874 9.434773141342617 16.965534894866362
Na 16.05333975002783 11.156051659782474 16.47158386871668
Na 10.374387541287815 12.178195962128191 16.61133270415901
Na 13.552733903466088 13.273075860884179 18.045504914343244
