33
Energy = -34.67556552 eV
Na 8.92195687145968 16.540424317302683 8.225547569172951
Na 9.033792763239315 12.781086740501323 7.986047869121058
Na 12.133196458641478 17.982690327072863 9.22309953595371
Na 12.49735517706569 11.83452819673939 8.437678641786068
Na 11.840945586692857 14.983669891444535 6.893707100823108
Na 9.943116478171465 9.062639492225351 8.90481467550647
Na 13.41738961455291 8.35266468816797 8.1951480445983
Na 7.519763967735167 14.271657911957913 11.038458405349642
Na 6.91557371013404 10.66071655701015 10.441130695551946
Na 11.004328337101215 14.996571265285903 10.315681839226482
Na 15.705459167196652 11.178221523536068 10.279325881377554
Na 9.978170121470205 11.796584851507227 11.234923401101073
Na 13.123352385437101 12.931390043310179 11.901449623735058
Na 14.53520792145969 14.886266396543155 9.460319554775317
Na 12.65651555786679 9.428457310270929 11.307224366406846
Na 11.513017500155199 6.202645252829041 10.941629239961733
Na 18.171921069176427 10.82888771762826 13.282598086674243
Na 16.433884075835778 13.979386388794492 12.750442687391638
Na 9.406964809779476 8.53295409929507 12.533415966958154
Na 13.573209006998248 16.483403274922274 12.775606588820903
Na 14.797874248439493 10.65039354555788 13.747414401249308
Na 12.75565324180563 7.676310146945584 14.443221913699702
Na 10.327856622160606 14.536581679337353 13.841409957049805
Na 7.785393227697762 11.909164629354807 13.924979446810154
Na 11.21336906769352 10.972741398439616 14.510836125950233
Na 16.38801561030578 8.662598625609677 15.784228271066056
Na 13.605830085777294 13.672902626911846 15.184387744980052
Na 15.912566216701206 16.11462823009797 15.731956526820303
Na 16.75628311545845 12.480343665102628 16.216879472897997
Na 12.391011780936353 16.555455623885827 16.483488325661842
Na 13.573548607567341 10.633350784093741 17.17223876910954
Na 10.854406951642856 13.24181611965683 17.25912346051125
Na 14.235067666011032 14.100863701027473 18.493582832268203
