31
Energy = -32.04278774 eV
Na 17.36455811134092 12.087856313535898 19.70247124966898
Na 13.895249478599093 12.929606793543423 19.668470941271217
Na 16.206797112601198 14.900585498361286 17.928365791376034
Na 15.22616332048917 10.962801184728935 17.02610286533525
Na 18.382329748378343 12.53936406456585 16.24020840147659
Na 17.098127892530417 15.371767505777107 14.36422959243585
Na 11.562128295752993 11.924356708117083 17.15708392836186
Na 12.32536731135 15.578268882179753 17.81018576469433
Na 13.957629385650616 13.820371549982934 15.28875001399878
Na 12.931091043616084 10.246321675279834 14.275621335583855
Na 14.688098107394715 17.489452994032035 15.92518185745205
Na 16.211251922222587 11.528229871019395 13.525900114548344
Na 9.09533639128521 11.042673098656861 14.62163247200591
Na 9.616680761580806 14.504678961454172 15.691017097396232
Na 19.29818591928685 13.106848421728527 12.77958393237122
Na 17.87359488218892 15.96215514026311 10.906719237973435
Na 14.881247209079346 17.880997476286534 12.388493434109428
Na 14.642114842490392 14.456138249598167 11.807025329019034
Na 17.10392959071158 12.468369300699372 10.051196139224837
Na 11.437830040716516 13.173594985965721 12.89087862125022
Na 7.819649942216392 12.110764650449092 11.312977856392154
Na 13.81784244227194 11.13051034612151 10.78438592422661
Na 11.879746964878112 16.67204075126905 13.996302120406956
Na 6.5904426953950495 13.579313571275529 14.194290879464313
Na 17.5857079739178 14.911773203358193 7.556132203180546
Na 10.560897442643125 9.932081895887071 11.498215757972707
Na 15.139790240548054 17.092798207296788 8.885167962716157
Na 14.136940866694275 13.801523094417943 8.292084308874964
Na 11.999323626520287 16.301803755711852 10.36582438571354
Na 8.86940186744052 15.40184495719839 12.061161547175216
Na 10.791218643228467 13.039449969010152 9.454410820295205
