34
Energy = -34.98689832 eV
Na 13.454172008366129 19.927178835624304 10.029784746061944
Na 15.561535530443834 17.351329903161215 9.374315832892227
Na 15.908272085420874 18.743337009841614 12.52045779344273
Na 12.162393145172844 16.659573232222602 10.07939022591249
Na 12.40331333072077 18.733263924273587 13.066575100839437
Na 17.703982772035364 15.663434375246338 11.4269122168963
Na 14.73111720470679 14.043327216567715 9.609052996449993
Na 17.797932383948112 16.9195580473603 14.721122423421654
Na 11.347017168219361 13.455163963535872 10.583169576967917
Na 14.443595179532785 15.522367643803186 12.850249643043504
Na 14.646679791178395 17.992580358064405 15.626428315701183
Na 11.022307545519247 15.500573858698363 13.329125490772277
Na 16.559392889022643 12.3734047910077 12.125046639185404
Na 19.38653559883776 13.734556190853713 13.776984452678544
Na 19.478228207733938 15.112305763361993 16.980369094813273
Na 13.989962966054442 10.786971662574272 10.1157725989825
Na 11.107376265646016 17.669567566286716 16.118925595462947
Na 16.23735822815176 13.74137042385897 15.263392299249746
Na 18.026824072836963 12.363841281151501 18.201102040506598
Na 9.324744210301098 12.554844266270782 13.366327058553553
Na 13.258061404557699 17.587935467150196 18.76667600046693
Na 13.107546060855789 12.059026408642527 13.483054913528939
Na 10.67448974469735 10.250512820265241 11.150138512203519
Na 9.478935334960441 14.582305730276698 16.338881380829736
Na 16.072840689038735 15.75616130786331 18.052533870672104
Na 13.096110185748797 14.747059043988651 16.257881985461374
Na 17.21914353615831 10.428941251469606 15.437004611096604
Na 15.693308909696414 9.173261678327309 12.66943944085094
Na 11.501621534868589 11.818051259351142 17.065416581732848
Na 14.73146536718755 11.965283877756042 17.98990339269264
Na 8.119770806378565 11.420212768463944 16.446427635587824
Na 10.617579375968322 9.613741177646524 14.639212407493963
Na 13.840253446575577 9.47321523592857 15.728319214118361
Na 12.660412989690622 7.797442922899151 12.297013931339851
