32
Energy = -30.63079651 eV
Na 15.762236600197745 9.054473609819702 12.029223785649387
Na 12.315124877988001 9.297395451770399 12.846778092540934
Na 18.0189715442671 10.029113760002772 14.400401568247467
Na 11.714199917016305 11.043151187459651 9.584674997290108
Na 14.734954901354916 10.659888258064706 15.018955086778085
Na 16.997150565221332 11.889452286969552 17.36065963160557
Na 15.17073261407941 11.224561851383964 9.386226681968836
Na 9.78534301040536 11.601811910292815 12.58290935715257
Na 11.496420250696621 11.285564604917893 15.60461776686474
Na 13.727822591879859 12.594483787846787 17.878709871515635
Na 16.823928555661926 12.411325989679773 12.135215292964569
Na 8.568811702771246 12.96527342611572 15.51137882262862
Na 13.163847627576528 12.759107475561471 12.440920495692508
Na 18.972691153244458 13.319529765751485 14.665798976865027
Na 10.11598679650483 14.078513392011255 9.99038898660082
Na 10.498614978200525 13.820799022354711 18.283008138483712
Na 15.321541127030908 14.030040334065065 14.958311932127847
Na 20.29849300953537 16.533299012161628 15.018865200323907
Na 13.446515218270477 14.45798127077671 9.342478211615074
Na 16.99946125653404 14.248064299505366 9.138025637699238
Na 11.646317107174879 14.88266328190689 15.053051962414676
Na 8.840335064678442 15.373266100836831 12.898655701130059
Na 15.289062606918963 15.696985826469774 11.9630387024869
Na 8.418100657962553 16.274567577852856 16.366441789726192
Na 18.679813258875853 15.45899771718501 11.884917456656703
Na 17.986635147472075 15.20874794675086 17.42236444412519
Na 14.561624004043969 16.08573153400968 17.568395080924763
Na 11.979530339854145 16.399220849969797 11.836046605282307
Na 11.382407245694214 17.408523816520994 17.49048202119002
Na 16.942265386139052 17.161000125460127 14.659043596683581
Na 13.669044819663416 17.768295161220337 14.500080788789854
Na 10.324500966789655 18.397105029900395 14.138306880154
