39
Energy = -39.89026214 eV
Na 17.291384484668345 10.239118922277466 10.220063768665208
Na 14.967590649032806 10.898708245581682 7.918143696258843
Na 19.887860335084174 9.416846489390258 12.402096729059883
Na 16.500794149914064 9.610125907461304 13.686967865218927
Na 12.23349771042018 12.586100339155509 9.080637052789033
Na 14.009077104098134 10.910911574107283 11.466026372660071
Na 18.519352777579368 12.659976987407259 12.43642036402688
Na 15.96895230842053 13.681166493548481 10.050211182741116
Na 19.298594387128492 10.988898811044507 15.490700562278255
Na 15.14095721179873 17.042254693583647 10.211908336316474
Na 18.13664536014292 14.40227115398309 15.417056588721634
Na 15.955882258689064 11.216648757491491 16.789254313052126
Na 13.334563059237333 10.087687908065604 14.78223019103475
Na 10.231597922764726 15.165984660156898 9.831838595543818
Na 10.633072245840562 12.040660541038633 12.408431254177348
Na 17.89352971894665 15.927107919485909 12.311948534657448
Na 18.745883257383106 12.694358157416303 18.38826871668485
Na 15.28638658598675 13.077892861023928 13.850596290761331
Na 12.985729387997644 14.567607185866848 11.861659385984863
Na 14.724534595565572 16.517107857086867 13.955982951224822
Na 11.707367217004188 13.865314400951977 15.291234142038128
Na 16.875253994271347 19.152334786106348 12.51980984991547
Na 10.214751595111835 10.691666409743936 15.695717758757317
Na 17.564647335586972 17.84746975716741 15.579640137165544
Na 14.869121015181072 14.592740787493454 16.948782101834244
Na 7.809471639536664 12.955374770058363 14.767806582413062
Na 12.74844693114796 11.909379325566332 18.006021224338618
Na 17.700990192774654 16.102559922897967 18.58893061784773
Na 9.62821537595541 15.593434733531943 13.120320491880035
Na 15.618390195171157 12.860173124477551 19.937374681430192
Na 12.048665348432769 17.900248808764168 11.925567932424189
Na 14.170900517758996 20.43761360659916 10.819502732760343
Na 11.47394652472523 17.602890456555784 15.394872927370976
Na 13.918266943730686 19.914411980816404 14.378491969433988
Na 8.788446938428029 15.894900110316845 16.52667935688144
Na 9.370342191456196 12.919172797557556 18.333704720699043
Na 14.423903685813858 18.062762386902072 17.295137514871815
Na 11.797763226149943 15.678503421204756 18.340743975277032
Na 14.628446593767622 16.115753938537114 20.326247346597288
