37
Energy = -39.43126884 eV
Na 10.238521410198038 12.3982363299819 5.959516778076665
Na 13.549683777359332 10.870011069138725 6.585050897673294
Na 16.170039465414508 13.455931680843776 7.147547408982663
Na 12.635656246528635 14.522784421144289 7.57215422449423
Na 16.813890592084025 10.057300429488471 8.439034152729153
Na 10.893574439240302 11.162005633906146 9.054840181150352
Na 9.23771333575029 14.587547303540763 8.991719660848155
Na 11.480595728554523 17.496914887660388 10.098286839396392
Na 14.493314253165378 12.19175822936926 9.688779798490133
Na 15.106154721121158 15.845176516915457 10.079104195511286
Na 13.531520965777151 8.591725459623671 9.742434955690255
Na 9.093878083773987 12.266646099999557 12.088902072296458
Na 17.735654421360213 13.23531467981751 10.541037150210018
Na 11.979346413075946 14.210065756578551 10.94394628334212
Na 10.10586037455614 8.461346282008797 11.834734648554099
Na 16.089730933541837 9.99551524772641 12.214310916171172
Na 12.592850558913414 10.95845898302253 12.114744285426559
Na 9.38032058570402 15.99528080199859 12.782080831022636
Na 13.229941052809888 16.740635052623013 13.103642472601154
Na 13.27747970879403 7.852871523726699 13.733737534125515
Na 10.952345503334563 19.162391487369128 13.64961726979829
Na 7.477149667161904 9.643476628572651 14.28313493646285
Na 16.621306729149975 16.725786907926942 13.602210572203838
Na 11.787710100870544 13.703859941320966 14.290667885732283
Na 10.743164360305903 10.424308777152412 14.806779144518979
Na 9.958118533976869 7.120483972708511 15.349487527713379
Na 14.202977087158446 11.257311229636615 15.130129124979037
Na 15.200080765825918 13.632738427550864 12.900143697443754
Na 8.59457580515596 13.274136127115883 15.626906956954787
Na 16.018409362235342 8.537456168252719 16.064486716979758
Na 14.06072537471305 18.546325346323652 15.819635468927903
Na 11.012258216272109 16.458702099434245 16.1654616549091
Na 14.525026017840165 14.957350893888693 16.311051058257103
Na 12.6338196017007 8.87704232342871 17.353476257337995
Na 9.05322789091388 9.984464341029787 17.57189037958762
Na 11.76035620916095 12.688398013444488 17.591208540506997
Na 15.222105829893405 11.569325049121922 18.227191644286165
