34
Energy = -36.14921435 eV
Na 13.909689038791427 15.98838851646921 7.989400701119688
Na 8.411318856003197 11.109663869763589 8.383321556399341
Na 14.996080834675748 12.421330126624737 9.133750448737166
Na 11.341428110137974 13.482070599445501 8.838869640332362
Na 12.102467692774704 9.868867592584284 9.250580922083131
Na 17.012727443924454 15.493471964933885 10.145541014608558
Na 10.91477889526312 16.964649016914777 10.055920806089718
Na 14.608760434977443 18.386611245163813 10.741636336603205
Na 7.871703995037226 14.182878428075433 10.250060693850031
Na 8.719972735576658 8.153195068897118 10.530947754400094
Na 13.800117645743534 15.15430324376641 11.254994398342632
Na 15.310323734022374 9.424492904728277 11.325567497898886
Na 9.624001644295136 11.242144280978815 11.506121509202854
Na 12.949378939851734 11.903275525977755 11.862516778840721
Na 6.2236234123662 10.74475544772987 11.307927289851092
Na 18.27519610839392 11.35594911463228 10.720615372124415
Na 10.66018555545645 14.370616453330339 12.505973158362652
Na 11.802075896094117 8.54541538282558 12.781421150458733
Na 14.293756533270766 10.634459321966437 14.669182633840204
Na 8.335158127397824 16.68941250904079 12.89276366925198
Na 16.329838738161573 13.092002781307576 12.771571884143302
Na 17.674454182861364 9.89988501353582 14.16317476784284
Na 12.304061695109858 17.42356186140552 13.45945816058122
Na 15.964030950412713 16.53351099186506 13.775178485730548
Na 8.307024007344875 9.215545674077822 14.063911559168288
Na 7.527380393487423 13.039596057491298 13.796685393197224
Na 14.951686682180359 7.313005445172021 14.523702398329684
Na 12.044952316119533 8.52113304237986 16.409500595032465
Na 13.496159962434895 14.198236691796371 14.820499424204472
Na 10.797345502123695 11.616450938053667 14.90611217722894
Na 13.109130292558351 11.849353156072826 17.65292795495575
Na 10.15702045253181 15.012751941126394 15.838782463610235
Na 16.531042403481464 12.901073153769417 16.279079079602592
Na 15.721144028494761 9.345959879453229 17.47031956533022
