31
Energy = -31.59433023 eV
Na 17.33702779359478 14.930412771907857 11.869777996326215
Na 17.205636198890957 11.722841826533351 9.781229498074396
Na 17.280881759125723 14.372020114894562 15.25947449806919
Na 15.668668832983283 8.528045702291447 14.62831244948633
Na 14.048474779817903 11.157434264577084 8.416523739921955
Na 16.71860752510898 14.879405679592672 8.448398387832087
Na 14.635695744352034 15.946674590350987 13.772433957777787
Na 14.731552786010802 9.66166515998696 11.516651468499962
Na 16.152382669511777 11.369108515408511 16.60157236180312
Na 14.615739850739294 16.850126412307457 10.393359320989768
Na 13.370729678618758 14.541039876878287 7.879514505639493
Na 16.80457886767866 11.696839337206018 13.195162833839431
Na 14.131302044478607 13.323084749146556 11.267775149985441
Na 14.075725096012912 14.179824525919674 16.630942692673255
Na 12.901707029037489 7.995534168897603 16.6490236647716
Na 12.207360231283262 18.107442107566765 12.697266362023374
Na 13.312368539575864 11.425905695569666 14.39072729881469
Na 12.03116637030058 8.174301449726562 13.298960610365995
Na 11.026693682968778 16.02578057994604 9.905046273809605
Na 11.962287755926692 16.81655458255041 15.948992092232045
Na 12.97049626298561 11.130331191462895 18.014032852493095
Na 11.036610662589533 12.542030053263233 9.557763192395976
Na 10.246906366831682 10.089623756350832 15.855519519546359
Na 11.366168800084813 14.356661886707043 13.398556975112418
Na 11.709137377189277 9.15470547152601 10.02212489631724
Na 10.21768497238044 11.00601712181284 12.480885705198308
Na 10.68022414662315 13.561693193835831 17.143851222156176
Na 8.929637462722603 17.165620709693517 12.432979227394515
Na 8.13381578445337 12.673524520410288 14.63184658601932
Na 8.434099162457906 13.876740624206084 11.365793185889922
Na 8.61383759072047 15.907211406127258 15.614835007662803
