35
Energy = -37.0246776 eV
Na 18.842696578506015 13.2391516847088 12.64322108767117
Na 17.001975308009495 10.134460463260819 12.826255547859015
Na 17.620271178617195 12.238533333125426 15.961382680069551
Na 16.04267908446656 8.889717091538339 16.175722041369692
Na 17.056414609435173 11.783249862949758 9.533921580147979
Na 16.50642053776905 15.6720961541622 10.904261677933
Na 14.999931555824158 8.492488865543788 10.153974352675583
Na 15.426581970612883 14.597626005961432 17.93482434451533
Na 17.02233385977822 15.940025252663604 14.716874771004816
Na 15.793410718902777 11.05237117289676 18.995689588106714
Na 15.542625539768796 13.297122973337082 13.204651494289958
Na 13.649288076181916 9.008578152126367 13.565207952681611
Na 14.62099522358714 18.160235129634177 13.02854073265301
Na 14.071909327991959 11.851537509929402 15.989442303909694
Na 14.4518064169188 14.192265761570413 8.31193056288753
Na 14.040102569710067 11.651687456216733 10.801938181413728
Na 12.536501920396743 9.29027817687016 17.424261150221383
Na 11.334136732020323 9.578162094116268 10.821658010169125
Na 12.63872217635859 12.614164270012088 19.246279116949363
Na 13.494424330555526 10.695474368544671 7.679794843821801
Na 10.357473072977418 9.673833909095967 14.435382960259986
Na 14.680885202296084 17.985703130611164 16.777982464660152
Na 13.364457569671412 15.369907435259481 15.004120737811048
Na 13.915533304622318 17.70301412763946 9.349281017172148
Na 11.598445438013488 15.875197961784695 17.864235661477668
Na 11.893986591057592 12.490051181370182 13.234883085191305
Na 10.481515852589133 12.637801278221707 16.455202206631643
Na 12.830285166108363 15.339100790447205 11.490054502718312
Na 11.036298829962405 12.967364188279637 9.392471919458565
Na 8.7000084857761 12.549706291449803 12.620384316390904
Na 11.485969979034998 18.52069188270148 15.186693318104515
Na 11.333147000647232 18.60712901976331 11.73737122231288
Na 9.885042756700472 15.45501783506209 14.392916218564157
Na 9.313073180475138 15.77779343398876 10.90512940533331
Na 8.195600684366731 18.24568807047609 13.368812692015117
