33
Energy = -34.70905574 eV
Na 9.23796928163824 11.43350099495439 17.85304123528979
Na 12.464253140408111 13.0138053776558 17.74544349011579
Na 15.379322517005892 10.889493135317126 16.699477691517906
Na 9.441752954797852 15.149610709315562 17.2302107930753
Na 12.095990309132665 9.745485536379029 16.10335488475485
Na 15.493808566116313 14.631364892572682 16.567709880128405
Na 10.44749356352922 12.818832373396997 14.816388449016085
Na 12.297421959889341 15.902173898077013 15.226481685378928
Na 8.58832698922343 9.697924487054003 14.697506979827997
Na 7.037019156863813 13.069523922402128 15.503979443332383
Na 13.809136704461585 12.636769692769258 14.125320369121633
Na 14.964768805672504 9.373628003166584 13.128024140074702
Na 17.343147457614574 12.599138858640833 14.16504475147046
Na 11.475615442930728 10.185786896690896 12.753764385894483
Na 9.007770797659198 15.680229949316876 13.431251566385257
Na 18.5975954411125 14.983492245269458 11.891481339786242
Na 9.935146470903847 12.505559402439593 6.360821531479042
Na 12.650730367129741 14.115073261599349 8.019973200968792
Na 15.896651077613896 12.353358711961713 7.673868301375909
Na 9.203450316151422 14.715930972007614 9.434872586975802
Na 12.910007041171822 10.381135545530926 7.138112813898848
Na 15.520197885987512 14.992466691708923 9.983514581674697
Na 10.688903865379977 11.562042625483489 9.645248302526257
Na 11.97718237189894 14.56289242327206 11.711681561201088
Na 9.63522789241467 8.942156698434847 7.4786903620612435
Na 7.322662913266795 11.462343425564361 8.638281698448642
Na 14.006244436075361 11.817824196588552 10.666358073327114
Na 15.66731990362948 9.041028616662713 9.340991869279646
Na 17.553398430391447 11.748822373528403 10.862206544975228
Na 12.309522846781432 8.256473566076705 10.04207618958852
Na 8.317521441266434 12.39569233577386 12.087363927012117
Na 15.296275266726314 15.78162115661165 13.237983483603138
Na 8.7048815058194 8.831534144441584 11.016191007098337
