32
Energy = -33.81922202 eV
Na 11.205590277979754 11.626902078904223 6.276058750392156
Na 13.726022261191744 14.227609949196609 6.758136298343077
Na 14.728473994408738 10.529281778418392 7.592618880759208
Na 10.055703865540943 14.979116978997734 7.940340109654946
Na 11.623509440543977 8.981571841951153 8.943700786001585
Na 14.906715429285116 7.356560773376296 9.872843883484004
Na 12.323781249292026 12.563535719577557 9.285526327442518
Na 8.752045332406414 11.724319637993881 9.165624394209532
Na 15.887428154547274 13.337043568673458 9.746966555144946
Na 17.439731754847507 9.938122005094447 10.358969656555931
Na 12.977233251052331 16.10220674227357 9.95279202628492
Na 14.224384627095889 10.378955212960737 11.133314255880718
Na 7.068678728466972 14.849090479988023 10.495173027868095
Na 10.776185049491744 10.735032674215084 11.920518732982787
Na 10.21426505721064 14.20771654991114 11.43126366990067
Na 9.574938942689624 17.448034611262656 10.963620400460025
Na 13.579304443515058 13.614958700885913 12.431088617666301
Na 7.671577615134787 12.07856810588482 12.997355185119492
Na 11.91566388446508 16.459361064350656 13.778188769073092
Na 8.317114718990851 15.555787387522438 14.14419395485425
Na 12.336713463006577 7.6301524411789545 12.63774405639383
Na 16.580157388579796 11.979389651076705 13.434504790659572
Na 10.827259774656754 13.053463180124684 14.599399245367419
Na 13.302312072004181 10.685232782095664 14.420641964313193
Na 15.860547879701276 8.332291766806149 13.565613220346524
Na 9.882458694507271 9.553480417699825 15.14021481319552
Na 14.137014368074526 13.90974666593158 15.936273098015736
Na 8.265350520952106 12.606045742440282 16.70466313133978
Na 10.79481266423658 15.185982692303883 17.16842896954269
Na 13.098583072281484 7.953919926444823 16.33132837918558
Na 15.619555872331718 10.533396120619514 16.825633354694222
Na 11.89895153092897 11.455188131257907 17.619326074286942
