34
Energy = -35.82614597 eV
Na 12.267024243006194 9.359046479927189 6.870807206466507
Na 9.134048048647461 10.478628102122011 8.032375419923467
Na 11.826385878228518 12.82453718709877 7.511213339180113
Na 10.912214849313742 6.98631178803087 9.441543005469383
Na 14.911535548117344 14.624161583424165 7.8966853817159866
Na 11.819402447677486 16.143631849863592 9.045760895425007
Na 15.050921872109324 11.135825449042903 8.326448425766992
Na 8.741825825237877 14.136383801513997 8.606441348299864
Na 6.497532642876829 11.76552254222346 9.915800222493047
Na 14.4876542206324 7.649465682265317 9.055525455635422
Na 11.910446956455756 10.082736834974025 10.392935353463704
Na 8.17562401511803 8.774446744365843 10.998931480942424
Na 13.35398843102488 13.434320466007556 10.903160825031676
Na 16.018857989037866 9.760252023680083 11.45494746284744
Na 16.90637266316441 13.326187340525246 10.74163233119074
Na 8.978911305130945 16.705711420344883 11.03387230596
Na 15.123656350921285 16.533440652128302 10.836507628507018
Na 17.113444764091525 11.9154272373008 13.980108110256175
Na 12.107958884959068 16.60554191130556 12.761824423617226
Na 6.616987860388732 14.396358022527242 12.391197026815346
Na 13.535900587303939 7.157886669461629 12.389779466310525
Na 12.987397014856862 11.083175038943477 13.773694370870404
Na 9.733349994817173 12.822907924252084 12.008619425684666
Na 9.06860353856689 16.109971005158126 14.47234501246143
Na 10.166683130853666 6.436075990333078 12.930166201553979
Na 15.029294325424589 14.711276221235916 13.928252867459877
Na 9.47374045976029 9.558561396180952 14.309660192542223
Na 15.528834189934972 8.886844787748249 14.944380852915373
Na 14.671455079620012 12.16233896024415 16.579964509199502
Na 12.197613541372593 7.822077504781148 15.589041660823135
Na 6.443411736408747 10.892537750941084 13.301351667701585
Na 11.857398884625686 14.270360168818794 15.545259422312684
Na 8.487401453010918 12.820740381907433 15.508564355870785
Na 11.283846269445757 11.047034083462831 16.940927347427742
