30
Energy = -31.23615488 eV
Na 11.120334088998955 9.092735004326427 6.977817701870731
Na 9.317387805628236 12.119378900730092 7.095283155182077
Na 10.624487801446413 15.405655322183597 8.028479921524983
Na 14.26571840333408 15.890425110797679 8.203255392775711
Na 14.509336823401606 9.72624409133926 7.332924200676157
Na 12.73172567271808 12.49791517356985 8.476631366200088
Na 8.87237979816634 9.406110431869333 9.642621108839183
Na 16.232000281766318 12.913695070691688 7.93708998768344
Na 9.66125205755759 12.67222292904993 10.460408807018307
Na 12.314316280504178 8.926006024558129 10.225503805231615
Na 15.667605603536119 14.157701324925803 11.240897899325132
Na 12.278638766086416 15.471659088105293 11.076271685988795
Na 12.787034236041988 12.011698216022225 12.010106520672503
Na 15.618101304563693 10.548234151764019 10.703703833533293
Na 8.926162199885948 16.089532538640608 11.320167356072258
Na 15.841375479591921 11.84133335858216 14.129091090768496
Na 13.556646121287152 14.645360699055098 14.219700739890502
Na 16.77038593373037 15.286320188706966 14.976411270205661
Na 11.055167785954486 17.012773797527306 14.381789422728511
Na 13.713969775013588 8.894821465919296 13.620458172981351
Na 10.082105046194478 9.955091339054778 13.17837511314742
Na 10.006069278363464 13.631997169820606 13.821966702855498
Na 12.397247400908197 11.573970014694225 15.546017738805384
Na 13.94761158574755 16.982337136436232 16.65588315983325
Na 14.833146838095344 13.433353200294178 17.471350650002517
Na 11.277520233420226 14.550717301426097 17.240757379862405
Na 14.699284537794579 9.744321034241633 17.229103163271734
Na 11.383864828918144 8.518855872904897 16.744942579625636
Na 9.24992295322794 11.418552468362954 16.811741307268655
Na 12.04722481690092 11.369005313185045 19.029272504943215
