35
Energy = -36.29673069 eV
Na 15.408245851568426 14.174732842638544 8.91624065450901
Na 16.246671626255463 17.578930908341125 8.250880874329452
Na 14.63763258761086 11.11587730649101 10.19017765414072
Na 12.2277593712461 13.621375265974399 10.53720494531094
Na 13.272352658382234 16.906277370671987 9.914229092221534
Na 13.792824012036354 8.221460510590463 11.693408398558296
Na 11.306572235578848 10.496892746257132 11.80466748284327
Na 18.184846229326073 15.779299478708987 10.442564946705525
Na 8.995546210666385 12.972831482710093 12.010095036949226
Na 10.19171936528584 16.329080058038002 11.400299444694596
Na 17.601310418837233 12.664126722446605 11.579510502895738
Na 16.85076326106188 9.639646223595859 12.832640529247971
Na 7.0069724592885505 15.859871133382862 12.690691247680315
Na 14.949029250625347 14.944848772041324 12.444999441730918
Na 16.044365203819602 18.247631470217144 11.810612229529447
Na 15.34415557607608 6.801703912183028 14.378883889641987
Na 14.1183618751404 11.698836727484725 13.708099189115696
Na 11.709857322057902 14.334604416156786 14.006253748394471
Na 9.63042482470036 17.055543402473457 14.890047309842053
Na 10.17330454597636 11.279605627254789 15.15705642072381
Na 14.659218342149854 14.550923265565004 15.945071989615244
Na 18.14123340540964 15.599448222478863 13.815542749514583
Na 12.967228540098535 11.577439759394357 17.184211863682986
Na 12.747140227881216 17.85223672023778 13.243554384620348
Na 12.457401012291902 8.824620598729124 14.93569546293193
Na 8.068211775878142 13.908777936037271 15.305294067796714
Na 17.457958953626353 12.397825010528322 15.038131586827433
Na 15.726105662350943 9.648124552608376 16.287446094093177
Na 12.472654200987872 17.31923075486714 16.704774121241645
Na 15.695171858019874 17.90422108415899 15.151957024548862
Na 10.704901348997218 14.233767064700048 17.39017987188837
Na 15.38877915046786 17.23914323410934 18.499401785261078
Na 17.91409249467811 15.295730365868353 17.199365915721266
Na 13.504261080970322 14.483120447473507 19.31706493395138
Na 16.198747766181828 12.416922679154533 18.33075102721264
