34
Energy = -36.0802998 eV
Na 12.916160566529188 10.973696563338912 5.871609266699581
Na 10.352049871598483 9.431641387170334 8.203684044729366
Na 10.92646355302591 13.0746912370243 7.872725516287007
Na 13.689693869745234 7.914355900291004 7.798833300119948
Na 7.603761440953299 11.583102316763718 9.62476812460477
Na 14.509763665645817 13.925902874644686 7.635112240118469
Na 16.238640779466017 10.674227198947698 7.43696337003665
Na 12.360525012957165 16.70829490218877 8.996529112504417
Na 13.538630855460157 10.830802924088696 9.346320145899591
Na 8.255625289688174 8.838007381933808 12.030674583062076
Na 9.453500984916388 14.855365033587411 11.072572348704998
Na 16.370672777590453 12.829499311409421 10.804960300372809
Na 10.55877601807617 11.441253027122753 11.114848402425373
Na 12.926461157481176 13.975768023044292 10.791213372555294
Na 11.944993691899928 8.11395604585632 11.41386244819598
Na 16.520095886289912 11.585728353522239 14.700984720494608
Na 15.449480167917109 16.510464668862873 11.039017647474958
Na 10.699378657361788 10.19601504614886 14.323768663149973
Na 15.218577893171915 17.65075053376261 14.669750567948393
Na 13.841761953306863 10.97775721748819 12.71940564470497
Na 17.80269256832533 15.15220483312159 13.55425862697996
Na 7.832414236518131 12.281151613072968 13.448064321011863
Na 14.576994864883119 14.33676763365106 13.799772439381941
Na 8.996660850682916 15.766482357924794 14.925374929559322
Na 13.683674298973951 8.560057863904346 15.074843233526062
Na 11.240802887753993 13.53685140594113 13.852232845847048
Na 12.172839218964715 16.91699462054517 12.864418956996001
Na 10.064622868668332 6.934376769328808 14.624897805580622
Na 7.564122314579889 9.506854072086123 15.731158775994524
Na 16.014242857892047 14.762482848667727 16.818993781314582
Na 13.258312099719948 11.989604271063163 16.411963087036717
Na 9.518547893748364 12.599939152604858 16.78224616190334
Na 12.412034233000396 15.686751973360938 16.396660504134978
Na 10.772169686232338 9.163345610555215 17.53265568366875
