34
Energy = -35.92415584 eV
Na 12.092009491049206 11.653846199425132 7.100563078843194
Na 14.797143356514695 9.1604844692111 8.004953583681319
Na 11.212253147300823 8.555544992270178 8.922301572627084
Na 11.335896367888273 18.168169368425467 10.297553206571392
Na 9.330063835225696 15.482770368486923 8.372554921453364
Na 15.3972147568166 12.916779489350612 8.25488297203415
Na 14.909018770329743 17.021907220574956 10.233168492871961
Na 9.629353780691961 12.027190120630387 9.773660996618817
Na 13.897667076836312 7.759730593848978 11.511717760264986
Na 13.155386275254052 11.073583099875458 10.237257205087912
Na 16.553853956553503 10.407938868761546 11.083869440603829
Na 12.444810166999808 14.623875858524272 9.429081594454356
Na 13.818003997467747 19.272755616934067 13.03466061747313
Na 10.702549247227134 9.36107132365515 12.474271624485876
Na 9.243755348801802 15.573240456174576 11.849882555986765
Na 15.221891114682522 13.74029281304251 11.67881763594721
Na 12.681186131633144 16.16852077136765 12.783729066518665
Na 11.493919439600434 12.9545230564793 12.577082397116238
Na 13.980955801039219 10.68558341537646 13.511871113916474
Na 10.347083772671544 18.399805214319088 13.973718914444488
Na 8.335664976203233 12.277985096891731 13.369658400997334
Na 16.39301015439932 8.491287952897546 14.306142429261392
Na 17.011947648555168 12.400386283251159 14.36724611537274
Na 15.995663216990724 16.28607748746431 14.082128441761684
Na 12.76190966177997 8.031287875413742 15.38659893205126
Na 13.717836838909903 13.746475189668914 15.111384561784794
Na 10.2046610311457 14.969671859587502 15.360529652620707
Na 11.027111987369016 11.263748943469615 15.701798211633408
Na 14.915492275427926 10.742633233637529 16.881379701548493
Na 13.13578897226828 17.08515515802887 16.231734129486156
Na 15.884667217375737 14.428114269206374 17.555173386624347
Na 12.090958885452972 13.690141425334327 18.179567889896862
Na 12.064870415231299 9.887862199645127 18.761338451032746
Na 14.621985011933399 12.097143836395576 20.00530507255188
