36
Energy = -37.13694499 eV
Na 10.7370546523364 7.549480846691281 15.597359968456518
Na 9.62787627845482 10.736303939771906 14.226812659336737
Na 10.426290184893043 10.31428290106675 17.605777427694054
Na 12.691030029434097 9.138845131582492 13.25586370593489
Na 13.644634544371483 9.572970329549525 16.57840496331483
Na 11.444043484662858 11.791661285052193 11.402244850085635
Na 9.401222852958231 13.96134564372459 13.278349631882094
Na 9.741753242735623 13.489124429743663 16.728293636742926
Na 14.641293169217558 10.267129853149404 10.67347119244684
Na 12.629751639447498 12.696188856617077 14.917710181961299
Na 12.90064208502993 12.519122311548646 18.466561364834345
Na 15.590993703723333 11.078871672376167 13.987276066664506
Na 13.366376587576436 12.899586543078039 8.765423540888907
Na 16.55529683678449 11.433777164236277 7.984568926260482
Na 11.47064773771529 15.088222611985469 10.720635275690672
Na 9.5466555741423 16.76640193897084 15.78935982406489
Na 16.202525587382286 11.65160556850389 17.35877463367059
Na 9.487259664242652 17.36695219079868 12.524105430816114
Na 17.638077991146044 12.161820827167734 11.268325664097167
Na 14.470821295592797 13.817372268275145 12.129163261106347
Na 11.680594365337997 18.54132391994752 10.237109342773898
Na 18.89250114324097 13.71249833093672 17.757901504106393
Na 16.347282398706 14.783738785238613 9.119517896783584
Na 15.425054978667871 14.67702952789241 19.017451057999903
Na 12.438201131132638 15.771527523284535 17.39290064145121
Na 13.195956860511192 16.356029702239535 8.018189557475322
Na 18.506603801437862 12.927215610234883 14.491774836467261
Na 15.497025533293156 14.735201728004657 15.529106759528858
Na 12.649071793753606 16.446475239495733 13.934101409572865
Na 17.597513605417124 15.6371776803036 12.209292343191994
Na 14.704870016044804 17.232427219998453 11.123742267313293
Na 18.052273107552537 16.83664479523848 18.625307511731588
Na 14.934114997984997 17.962094328699816 17.471883600747628
Na 18.677093802282602 16.402408119160114 15.275529654825766
Na 15.826199137515736 18.083655732585793 14.136972584656817
Na 17.833119667843008 19.727503977065677 16.588423403169173
