39
Energy = -41.83132279 eV
Na 11.601986752343816 10.938334354138016 5.964275990867709
Na 14.693203532573056 12.641588247294171 7.597925743573192
Na 17.76609957776926 10.519874848564804 8.896419198915295
Na 14.434309692771834 8.879085120963966 7.999723335914571
Na 11.273878781343052 14.140009824943506 7.782925959207642
Na 14.603942625763539 16.321650854826885 8.898784144484665
Na 10.432232416730372 7.941167404771815 8.450918283654575
Na 8.606950849654414 11.489289627929221 8.282365170949939
Na 16.977983625100453 14.036487732144105 10.73375752579733
Na 11.9403600998414 10.874868137821624 9.284690154614697
Na 7.77738165675379 14.99246149028105 9.60070291884515
Na 15.13166372530928 10.81343953827082 10.85628394415183
Na 13.422449969353819 13.811274824151313 10.689180314573537
Na 16.685479530083896 7.872109881821455 11.166008580634406
Na 6.796039794125649 12.26931178119388 12.068670512999018
Na 11.245329480291701 16.604882631265973 11.058983343521689
Na 18.03707173764699 11.125702631318356 12.929093020070125
Na 10.033335511837322 13.12852085417815 11.093221126069961
Na 12.832744663343222 7.7765702653389885 11.317389931541241
Na 9.584723771505553 6.295257332646127 11.917335771079275
Na 8.52576383114685 15.41155570317868 13.30624575870812
Na 12.35544281438806 10.989192966208236 12.737032025366899
Na 9.231751704567799 9.629343330403215 11.396784274837684
Na 14.79184790739143 16.466632987317087 12.70887412650058
Na 9.59120584376574 11.899979040956737 14.324971922386066
Na 11.976043829637167 14.387581119537623 13.822564988143228
Na 15.12203008898265 12.920812110424917 13.654383272431858
Na 17.798412051698147 14.804134637522672 14.368155306137497
Na 11.34667932019559 17.52001049590621 14.841716218621512
Na 10.989678041443684 8.446589793201241 14.653709243943048
Na 7.022163854634334 13.252564162547827 15.956733033277573
Na 15.024771172829016 9.259448304282035 14.221241817548224
Na 8.073112171645487 16.773860618799727 16.456774985178175
Na 7.389438732139503 9.284140756846242 14.521347629432878
Na 10.526671518188719 14.266617184658983 16.937090108725993
Na 12.871366643385425 11.525281110851127 16.260359902086336
Na 9.415834342331946 10.593442499504008 17.41848694781412
Na 14.34748078552713 15.080171246849494 16.28308664895662
Na 16.645371579594638 11.938988574775257 16.464020846072607
