30
Energy = -31.0582198 eV
Na 14.333005950217371 14.966564948050468 7.712786381390906
Na 8.27301459545857 11.704242497500138 8.562963746907466
Na 11.958222651868862 11.162948499120185 7.787353515427673
Na 16.31649214656102 11.818126550979107 8.282669504250187
Na 9.709556229752657 8.297423271376276 9.39249844144695
Na 13.751413640322024 12.877151209121553 10.38093578359673
Na 13.971756722820196 9.238014460451268 10.042227503488009
Na 10.755013008386738 14.501136632051864 9.255970218044343
Na 8.054913019475507 13.591333959596673 11.759224954192382
Na 10.772424189011542 11.104560846087972 10.892104815151956
Na 13.646994282758364 16.478057391526278 10.956094142673273
Na 13.48438967916622 10.742854311525933 13.220842778437879
Na 16.910165962028454 14.833495451689155 10.394767057574912
Na 11.582255275298602 7.930511950152321 12.460738326687107
Na 16.84047032507778 11.347393355173134 11.71925280515735
Na 7.368547861162511 10.084283668358534 11.56661682053226
Na 16.312326523545956 17.074343365684296 13.338163994140606
Na 11.44658305000466 14.203682936004492 12.65515869479945
Na 14.9142799670123 14.015136477465326 13.335331600801986
Na 18.33784968907368 13.989031071685307 13.800070038686181
Na 8.613586772997486 8.055588363551404 14.202989996314944
Na 11.92839154796658 9.087747850828551 15.938283781723513
Na 12.857080859551852 16.509175491058173 14.768237516172649
Na 9.906286657589318 11.30434365407117 14.01144881468486
Na 9.146719176226668 14.392721647835405 15.38823110552419
Na 16.083420513428518 11.512735103690234 15.51157643774362
Na 6.597357891632163 11.887507583917612 14.558232285580853
Na 15.948970949711587 15.13281559817015 16.27425394356025
Na 12.557258632381712 12.900262263786157 15.924484571721717
Na 8.762251283614173 10.397808643592864 17.047489477688504
