37
Energy = -38.20692496 eV
Na 11.03301343064257 16.062704619904945 8.148817110857456
Na 13.297222443726362 18.046243103630058 9.772737604882623
Na 16.78511062179769 16.94999533895377 8.873191633941282
Na 10.26301376682266 16.34818343293571 11.588429524024706
Na 14.1398944686013 14.68992900416407 8.639233104862324
Na 11.200644721186462 13.181939969333941 10.092677347512637
Na 12.675534943366822 18.550550925138555 13.015731746048075
Na 15.920035562695505 17.447335431122053 12.146515088490862
Na 13.453245998974966 14.995332218814653 12.1327454608001
Na 9.396921863162602 16.33946162292329 15.001474617610674
Na 19.193925411745276 16.424134687720446 11.289831388325085
Na 10.547119734699306 13.340005070363263 13.472337229917875
Na 16.721947032617976 14.023539129638852 10.87073599169982
Na 14.324991360099673 11.6179260986294 10.531153423837901
Na 11.72217234077658 18.657498818431073 16.201638486770104
Na 9.918461099255753 13.341550200846953 16.86472062322906
Na 11.370129517789877 10.119371493254622 11.885562556255437
Na 15.124588187235236 17.755960667663377 15.36644066115876
Na 16.043581577245547 14.304918418626144 14.306320422101564
Na 13.658399904297902 11.79333206684796 14.049159427690608
Na 18.48959668514263 16.754571942122013 14.634891007027147
Na 19.465144194599816 13.40881719862502 13.196079067638749
Na 10.703390781292342 10.252351858820202 15.276036550234158
Na 13.870088470834586 17.494852383624746 18.481492300971045
Na 17.02330101159269 10.980201085263992 12.796205545763167
Na 14.52452432267707 8.647559532691075 12.294943585343722
Na 12.681214947752814 15.200215172816712 15.691959626677727
Na 17.4730237575853 16.822158085892823 17.934133196747297
Na 15.345251566664208 14.096499766074261 17.639781743864695
Na 18.80511491284904 13.650243638818859 16.56903232201282
Na 13.01569685087995 11.438331532043547 17.602742012842498
Na 16.41477411566436 11.00615400197892 16.298487867882002
Na 13.859217721590646 8.662620023193242 15.714612515158846
Na 15.411489765493263 15.678147331297586 20.852469699050328
Na 12.230797569315493 14.43460712422466 19.197696082521826
Na 18.044659821102126 13.427444344104014 19.991326159022147
Na 14.842210419436592 12.142579726551533 20.59948919742787
