31
Energy = -32.48563952 eV
Na 6.524520288568023 11.41472887569152 14.127375730410211
Na 8.753661780589995 15.854933675630896 8.35071507807389
Na 10.199253685939315 8.782468872937153 10.097719266891488
Na 12.169883211130777 12.861141534137937 13.606433856679198
Na 11.913679922074582 7.694900985327698 16.314773293838844
Na 12.372246076320838 10.41298289026326 7.385508021637439
Na 10.044701014628357 10.799552734534814 15.776116442958548
Na 12.28708105300332 11.659446678645457 10.389441052343248
Na 8.884202100056088 14.311863592920481 14.27064046773025
Na 8.310197061955206 17.039883218600593 11.857053884679708
Na 6.694714284196293 10.104057254145648 10.728305423742245
Na 17.574605245870544 11.094373018836034 14.634426164836587
Na 14.26100331598733 14.774214951718635 11.195751631212726
Na 10.581419852076472 14.70777433211749 10.941578879745617
Na 15.557616462431412 11.938914037257355 8.963330445455258
Na 9.18296866048687 12.19248959063832 8.654560603200894
Na 16.15555086535535 15.36589460492621 8.351352160390048
Na 8.509576407607558 8.345700351247515 13.662727016543824
Na 14.208652210715709 8.655960057987508 10.299693576545353
Na 9.337243624121752 11.426641439309803 12.235317697325838
Na 15.028657454524597 11.265964500381154 12.500553324460348
Na 12.062264416683785 13.949382841918169 16.682410170617946
Na 15.330968540028334 14.082750206191385 14.58682579192885
Na 17.663193586392104 9.68501648892584 11.215998241915722
Na 12.018424286271273 16.301500539302136 13.76559730212057
Na 12.550818858210876 14.380255311780566 7.91992361298804
Na 6.936025443191681 13.795868925024815 11.068701539348709
Na 13.979619902928864 10.69125381115712 15.945229659744124
Na 15.409108229296045 8.059169145250792 13.953539864096218
Na 17.629664667102205 13.44154040475202 11.533828940981003
Na 12.055931091195536 9.096828727382771 13.172024456498358
