33
Energy = -34.03632831 eV
Na 10.801932436623101 13.50635185809851 9.919752897111676
Na 8.84281049388546 12.591326736317603 12.659836484714681
Na 12.254132424989985 14.46110738649904 7.013524074812851
Na 9.835184401456894 9.433227662513213 13.982710539545268
Na 11.870016796995781 10.732987799110115 11.63344083445013
Na 8.068943653796147 11.607717106891426 16.171379496359766
Na 13.873501431132455 11.851203422501351 8.990625861428422
Na 13.322278065795423 9.617308496943103 14.62987536582834
Na 15.326950758394688 10.350151246903865 11.713437909226103
Na 12.81625745219544 16.423057798253375 9.970850458110828
Na 10.842948534040142 15.542236735026824 12.716204220418582
Na 8.583523357833489 14.916763612716798 15.366481184793766
Na 11.632963623853005 12.704327831703385 14.749945342403509
Na 14.11610012785202 13.77894425463936 12.143685127902126
Na 10.981869591698954 9.951332451947154 17.230358034183205
Na 15.395508592452217 14.99953378595651 8.032162184027419
Na 17.148821864022626 13.07854012657631 10.162555597633528
Na 18.662307268910983 11.182029007104349 12.611243954987454
Na 10.667442324469212 13.503930950124737 17.971677594348186
Na 15.947070268352316 11.92805517792135 14.758022389337052
Na 13.807544504647058 11.759376927339064 17.473814310528937
Na 16.214900642736783 16.646356130950632 10.905284642124577
Na 13.53606650698664 17.61338424376147 13.055730415296367
Na 11.571452236486014 16.49019264434195 15.941389435257728
Na 17.722872420784952 14.610840426600038 13.166885684169653
Na 14.956410789882748 15.170116192438652 15.308714984687336
Na 19.289612122255306 12.588406592211001 15.603189255125525
Na 13.63267603795688 15.156167195282267 18.584596582817113
Na 16.71305037297255 13.414356149445917 17.90039516415458
Na 16.936267621003093 18.016242266615734 14.048214585774181
Na 14.26335772852027 18.537879885303905 16.268265947950844
Na 18.798514561635617 15.916068236831592 16.160171677587602
Na 16.51053741147841 17.05833892502286 18.325764788278445
