38
Energy = -40.59338449 eV
Na 11.521050717424455 18.441945803035043 15.73113931102888
Na 15.750483022032919 15.567340567374094 9.929453634228048
Na 11.09498017261846 15.244874396231998 17.67807227200886
Na 11.064488942879725 10.390372403304438 18.038908511571684
Na 14.61051847276962 9.3072190252881 16.636679913354577
Na 12.937737747239213 18.010786310632366 9.15525457521415
Na 8.563190732518912 8.802421116267473 15.87637549164562
Na 14.502693562031473 16.215387049651767 16.077323878724346
Na 8.884510243847794 10.238739685286362 12.378531317851872
Na 9.72743306964731 15.879483406109548 8.804691861417222
Na 11.64423385582661 9.582158571109716 14.760484409797106
Na 17.207140775734832 16.356802480211783 13.273811025217558
Na 8.807928361367034 14.244741187661228 12.0634503267714
Na 14.113728355196537 12.275431154084572 10.26092930141934
Na 8.497556655457895 16.365284939104754 15.253531183495433
Na 10.450913620535758 12.05033524692894 9.43237330847105
Na 13.865919215373657 17.805413406346073 12.759822730640511
Na 10.151169708480658 17.780733177271408 12.140907022794192
Na 11.547086810363481 15.383506453090579 14.302826100775018
Na 12.463590055879235 9.147093473382187 11.147210329535287
Na 9.348418640753167 12.528404531865377 15.600328100045008
Na 13.168415075802285 12.674342406032757 16.23151302969792
Na 13.294951309352504 10.185096026794088 7.734264541542455
Na 17.391114306746488 8.99825537960724 14.023407746877844
Na 14.162920570101738 7.211498550690314 13.618666421876219
Na 10.290408426392597 6.876182606122104 13.080647909005068
Na 15.995073215901938 19.235183009145175 10.24779226615863
Na 16.49544410718176 12.243799453997747 7.938746345815032
Na 14.633393924955172 14.263772838007695 13.163270940406042
Na 11.411437323869421 6.709138722409505 16.570437984146636
Na 13.146623182457832 14.117803225240452 7.52192096915694
Na 12.184090627695529 15.121789405625053 10.846006661555247
Na 17.381707782922753 12.605450609006807 11.535310251204995
Na 11.61048460957561 12.294378958103586 12.766990948383002
Na 16.089389780013622 9.311395517727744 10.41735391245699
Na 9.760252226695584 8.316721562757555 9.436140212763029
Na 16.751190013381805 12.697556241294034 15.371294869161225
Na 14.682183076868437 10.723013401093077 13.397982681678654
