30
Energy = -30.47210089 eV
Na 10.050805440556744 13.518212350265644 11.367610915986045
Na 8.28405241182114 14.400411395463362 14.130225830552211
Na 8.623732982466642 16.751561909188272 11.466227177873535
Na 9.73149743001152 11.314938420529225 14.15488430060395
Na 11.785664644560212 12.691902931248167 8.52744288289716
Na 10.328656321007816 17.463495769460337 14.422246284686004
Na 11.912206633244713 14.20266428635541 14.405135484127511
Na 9.738268909185882 13.928341370005072 17.23250247349221
Na 10.464438689669354 15.875738837415664 8.70426217054551
Na 11.8084887402104 16.800583337094594 17.35438011564794
Na 11.641153917803896 11.032597600075585 16.98438976392923
Na 11.602161297943844 8.380591864585895 14.0585369101347
Na 13.908186191601656 14.181807615607694 17.25928727583094
Na 12.204175397697188 16.613484774684615 11.650001733894067
Na 13.83080051379063 8.449526332400007 16.724991261629242
Na 13.536347299190673 7.5455452234318985 10.975324544344378
Na 14.022116297179279 17.04685158762271 14.736056563685066
Na 15.574723879413122 8.126891661839428 13.772086024736645
Na 13.770905342296214 11.136100464334868 14.185411996639417
Na 15.722225242115016 16.446633017488132 11.621053764865604
Na 11.74564296460033 10.518166950482772 11.292443729324422
Na 13.768442414987645 13.509280819447412 11.367480293128137
Na 15.907298214556578 11.339164444804089 17.004080885285003
Na 14.026200886632564 15.945071187936536 8.626998804839966
Na 15.660571849821071 14.012287545227071 14.3252252556333
Na 15.524286578830454 10.4728109772335 11.13701857583458
Na 17.515136500147964 11.098776674138415 13.98073686305873
Na 17.369479904896856 13.46723388110937 11.270689020843202
Na 15.639707114903691 12.8001214192 8.343292631349335
Na 13.653215796056294 9.800363690370618 8.356513460800818
