30
Energy = -31.45655478 eV
Na 11.320642825093472 10.502655992644138 8.054867229353091
Na 12.255999463767639 14.389829839451513 8.283560821646544
Na 14.790061154132944 11.712853878039061 8.894111143935756
Na 15.804895362822606 15.269513389389743 8.35564500382723
Na 12.983497171062854 8.32618149375334 10.772424346866257
Na 9.7573144139736 16.89345276575008 9.010399867267827
Na 9.064595094753967 13.12105563663088 9.500260849603047
Na 17.58790360277101 13.237442380934205 10.838577380286536
Na 13.244292328917512 17.4306015758565 10.093028042520432
Na 11.918337576538715 11.810279532009552 11.047342901656142
Na 9.381853071591477 9.231147780646117 11.156901513887936
Na 14.335855383854122 14.241286048001959 11.306541154938815
Na 15.066299987941752 10.804589653660628 12.480160093062276
Na 16.609212758563558 16.654331615050975 11.722579065482098
Na 10.830565224266373 15.116897931732996 11.770744689180363
Na 16.194558043126104 13.67274760851886 14.329505188992302
Na 10.862861346968558 6.526102226146977 13.18343286254203
Na 9.1007768228382 12.244634416426052 13.215328074891437
Na 10.533185186141692 18.39912199852023 12.391015248937926
Na 17.22550088729658 9.876380173080912 15.037027074602287
Na 11.751169970507942 9.765370352085515 13.772388235548313
Na 8.464251290524217 8.963082515449658 14.7918051675893
Na 14.423793270908423 7.531307823292992 14.195392212772665
Na 13.422912421552018 16.68444752539826 13.695586792092808
Na 12.675399570455248 13.24370826281063 14.358871697582137
Na 7.291471012296924 12.217729191105239 16.201538748827538
Na 9.915000206130731 15.171324128530106 15.232847919648398
Na 11.585249124517121 7.908779458100687 16.590085749734914
Na 10.599666969463708 11.527846103366596 16.630282780909972
Na 14.146280261448856 10.668700507843717 16.23114994604155
