39
Energy = -41.80368479 eV
Na 14.922599718298091 9.119817015460686 6.762476813744981
Na 11.783645160934494 10.732569070097712 7.409622688525716
Na 11.576151349627224 14.513723365567802 7.875636227899686
Na 14.815957875692835 12.607269836177897 7.728866532658675
Na 9.002358649961225 12.485644997353411 9.135069407789945
Na 12.438151968573381 7.228564772339274 8.320674340874135
Na 8.438620891045925 16.06112635334075 9.271142923965161
Na 17.456777062148756 10.251019229206998 8.88346886157795
Na 11.343542032104212 17.845624350348217 9.513643195777355
Na 12.623460552711835 12.273375799607932 10.652550162327518
Na 14.333922164597594 15.806675609451204 9.670208703248909
Na 10.157565056714892 9.200158814823316 10.16761444505911
Na 10.850854364238891 14.984323540429934 11.68765662901956
Na 16.448633858458763 13.045625979291327 10.806640946034884
Na 6.621810126474954 10.316076862731721 10.873392138579973
Na 11.954016569423686 6.5815905279042335 11.958716784038364
Na 6.981611520813137 14.143479658805068 11.882874356553144
Na 14.421881204727343 9.265789091054206 10.525800824251354
Na 9.075514594664714 17.561460316580305 12.76918915131926
Na 9.304697891870697 11.743432596524418 12.503670170398712
Na 17.72233368935812 10.121799748334423 12.599923383195872
Na 14.267627634203874 14.85783269845365 12.943503640331233
Na 8.479231710224306 8.235597882329985 13.364180130325542
Na 13.06601966620204 18.086604340213817 12.538619085343853
Na 6.406157544395496 11.14179422302361 14.330739702172744
Na 11.897275224084591 9.70118948499446 13.187930415140697
Na 14.808560128159392 11.508035132845212 13.493793186194953
Na 17.448201317504385 13.787375983150989 14.256297826311775
Na 15.61191491166936 17.051647231606086 15.16046098887197
Na 14.831509833622025 8.079441143691342 14.153836413606536
Na 11.854856932227717 12.915079806036527 14.43110172931032
Na 8.722634788051263 14.30360000397625 14.984525317269823
Na 11.855651816792726 16.261040708153125 15.305927354129143
Na 11.273387153917827 7.380655080221702 15.615366428008441
Na 9.524168911114916 10.565501416481716 16.048038100706844
Na 16.769402027070768 10.816858801273632 16.2664488168594
Na 14.665003680805329 13.824973275935454 16.581228791510615
Na 13.154109815297028 10.38033320903458 16.736271844103513
Na 11.221246610821836 13.34435805175284 17.733957551566565
