32
Energy = -32.85691751 eV
Na 8.11819526112756 12.41299488784283 15.413374146051977
Na 10.468401586552256 7.951776769753895 11.062437283165103
Na 8.643537747702672 10.789846450992373 10.176679683774296
Na 8.746628391796394 9.494916641308807 13.708277424572943
Na 8.313885538283353 15.767153588745117 15.248328990969728
Na 8.573997253214724 13.522179081419837 12.099025283716623
Na 10.189564030296253 13.840047684540913 17.850870360424956
Na 13.818921471028764 8.677799817507378 11.643860877437296
Na 11.39572526496491 11.208432467482954 12.491524556812356
Na 11.73379813366489 11.29013598065322 8.918579947935106
Na 11.92537692247571 8.103385226632929 14.546915817530206
Na 13.473853264816835 13.513242892273444 17.098286953318162
Na 9.642201916084334 16.808690533055994 12.283109529115485
Na 11.300641444036833 14.14140979329768 14.325051447563181
Na 11.214002005910428 10.981000669137234 16.143114697472893
Na 11.51323198062316 16.96011358832166 16.532871034077427
Na 14.335293960896205 10.659309074257054 14.592430372181653
Na 14.862003178539961 14.29091845790395 13.87763050691655
Na 12.849789527564768 17.15238159359274 13.127210988545036
Na 11.59216405944841 14.448402828649867 10.614131076074182
Na 14.405616639715946 12.187485035401366 11.171655910363542
Na 13.780693437842604 13.959877377895067 7.917595601053718
Na 16.94804870758897 9.628107891683058 10.798675236591707
Na 16.577894531035476 12.403384054636907 16.61623763266447
Na 14.961087042610307 10.366496991161679 8.025233878674102
Na 15.051694472553004 16.758404987502317 16.470173351792393
Na 17.36622454834448 11.804812371496919 13.299058163579058
Na 16.200314198669208 17.65921790014714 13.131670392978156
Na 14.827125085322159 15.776470687398046 10.547713808309203
Na 16.98306797699287 13.0062129993575 9.146205715737398
Na 18.0404180786599 15.118823076253415 15.155678822774158
Na 17.97321885133495 14.92953075327589 11.7990058197756
