35
Energy = -36.19716387 eV
Na 18.445696280459323 12.18980033276167 12.601059938949806
Na 19.27530029490083 14.462480570242375 15.216556564721229
Na 17.642011910810233 9.90570523055503 9.904139107307042
Na 16.84230465581487 13.409599391925017 9.671806242818835
Na 17.77809304255099 15.74923250641703 12.299856131772282
Na 16.093472335164922 15.964197517477016 15.32595044961526
Na 15.848284366603798 9.873307224944943 12.987485547654959
Na 14.342693612737651 16.439187922048916 18.27454607033256
Na 14.60156926727734 17.121358190993536 12.552577641097642
Na 16.671353562813927 12.201477534585008 15.647767042447144
Na 16.136172853418447 16.880479470001806 9.395941339744567
Na 13.83217860647448 18.646572651451486 15.637598873778645
Na 14.260002432425015 11.07329629979943 10.101150449445132
Na 17.495424501403523 14.577921176511177 18.23298573436397
Na 13.537723822969001 14.62186661262746 9.863301391601066
Na 15.084633221351979 13.515977756216241 12.812168427121849
Na 14.154429222949931 9.931669529488529 16.098427825241306
Na 14.867271231038675 12.278469798932575 18.72159861809684
Na 13.431221216634777 13.719313116472057 15.90719496941639
Na 10.648498830962204 9.143489337995703 15.456652237207601
Na 12.439674376993832 11.265134234544359 13.288166228185569
Na 13.162804158348836 7.731348504044249 13.525927737219762
Na 11.56422172698689 8.946019350910655 10.657240183353284
Na 12.893058700786133 18.1601977170408 9.66441826646829
Na 11.16416179712111 16.559402101801822 16.20804991479048
Na 11.861978555705933 14.944143415875194 13.022280485788567
Na 10.970049552631316 12.397814557405024 10.255869859897327
Na 11.626391017588878 14.422724354353663 18.864745121493968
Na 11.603625757334534 11.195775503700068 18.03865882320793
Na 9.098723921147421 10.378621127614657 12.636629879149478
Na 11.536827995806009 18.64642315316709 13.028813559220318
Na 10.215225625543571 15.900559111759856 10.118005819628591
Na 10.011796750556318 13.115061488677531 15.38914260113512
Na 8.41667318108872 13.709461735137648 12.175790467931424
Na 8.83427788104089 16.643240627571952 13.690741236378138
