32
Energy = -33.54266123 eV
Na 9.917295772812064 12.322614306797538 6.638611809877968
Na 11.324080202642104 15.685318298191758 7.3781294295580055
Na 7.971478162977484 14.65041294929725 8.742136845354652
Na 15.058561538778466 9.569807679645084 8.542284712254968
Na 13.578468093944718 12.666277255747096 7.52836918651701
Na 16.928160939690837 12.88874470795362 10.476850758890594
Na 8.211971740292023 11.03422118352761 9.84946525866714
Na 11.50136312512976 9.773692880462727 8.599232670822882
Na 10.942401820745745 13.189549427051718 9.758730878565704
Na 10.18026536191344 16.780917036348633 10.594120525736022
Na 16.574387055235583 8.991334817396183 11.779317769156485
Na 13.88860460652732 15.314918079885626 9.944812446771914
Na 13.238519349624761 7.912931243692848 11.272654079784704
Na 14.026372383140103 11.676249871303687 11.283307137020705
Na 8.316192702263654 13.706637811326377 12.224808036350433
Na 9.556647677455738 7.890492071001079 10.932445168007106
Na 13.100239084905875 17.623471293155013 12.675120658666232
Na 7.983118164831989 10.295683623949214 13.829034647623915
Na 11.865368906850396 14.402713464553777 12.797971835988504
Na 15.418283430819958 14.798555327497304 13.360264671860751
Na 11.206953769316684 7.159665992507679 14.071580295230813
Na 10.997468285960759 10.675062506680222 12.65041759727211
Na 16.77942168206537 11.495644845524296 14.22677291702638
Na 14.462805603137483 8.441884139811032 14.580371169147632
Na 9.51843627086522 16.50669815907881 14.218010286255726
Na 13.47068848140631 12.130655823190548 14.948504431748292
Na 12.76817566616527 15.673914253736305 15.96584480203611
Na 9.986717654580575 13.063972701810084 15.55414148718504
Na 15.79219265700602 13.950682826867746 16.863101810214214
Na 11.392070766245427 9.796700569663605 16.425970291343795
Na 15.008752879396551 10.418406276067174 17.46723978779108
Na 12.43897470053959 12.91660711354458 18.224815134540385
