31
Energy = -32.33641055 eV
Na 8.548546406517918 12.388488111259086 8.529962470803765
Na 11.29015515213927 14.570892272780066 8.017965681890264
Na 6.292690579910763 10.107969521291803 9.714755015393797
Na 17.28580370719718 10.489679719953193 11.05762889891327
Na 14.6170417378128 12.671041893873944 8.669072242632042
Na 11.82164716053852 11.045146896075062 7.090477720945121
Na 7.915370930066438 16.023972465450207 8.855222616168478
Na 14.258935171000427 16.249182546215163 8.254257939040173
Na 9.81487835242099 9.09460763374423 9.594314421436295
Na 6.056241900247597 13.592304132022694 10.808324402166647
Na 16.851863954959228 14.159007634265793 11.668312618276955
Na 11.453266678634039 11.995967699102637 10.437522821612436
Na 13.720689167006471 9.250225377941913 9.855192492075656
Na 11.114343719748772 17.521719859629663 10.095137270512309
Na 13.226030194392214 15.00260885255797 11.351201393397309
Na 14.401940604622357 11.801013583336191 12.220293407333688
Na 8.486221234871948 11.281556511350685 12.425760599927784
Na 11.628437360564599 9.28778454213718 12.882134258108096
Na 11.327082001186902 13.020251988635703 13.79165783243173
Na 11.579746841401935 16.4652896462134 14.140640676883656
Na 15.263020784735174 8.552480947213503 13.372018528415161
Na 14.788584913595782 14.615216612507194 14.651756051082598
Na 9.356844842984037 14.812798358691015 11.633876304053693
Na 17.18992267434888 11.739685277641861 14.451053089885855
Na 13.690488612056146 11.126707802553316 15.438106868792298
Na 10.237723576446056 10.611602229410476 16.04336925516853
Na 12.759996264552072 7.839601538458958 16.106061504280905
Na 12.21598729965854 13.895991701032786 17.13363449729456
Na 15.997945961818088 9.218298489855238 16.974594911558583
Na 15.649943027079438 12.76953387927017 17.765529999861027
Na 12.904734422434723 10.545497510478189 18.716289444606286
