33
Energy = -34.15481306 eV
Na 11.223059133782662 12.0464189872295 8.566036443450383
Na 7.754952852291873 13.099539439010687 8.674875608428549
Na 10.23484687717216 15.424962068550126 8.086954157828522
Na 14.615976248977985 11.618795157830675 9.397123761738756
Na 13.704357246259114 14.940058260392178 8.223688906681366
Na 17.874030608371097 11.067444840668976 10.553057435098674
Na 17.039011759442957 14.238585824971052 8.963113175558577
Na 12.518545814087531 10.365961614140163 11.916389235484038
Na 9.249644926934208 11.735547349960802 11.569130748589803
Na 15.781990371091949 9.575758919622372 12.930938865010026
Na 9.03959863395859 15.32106767606909 11.3755654983321
Na 12.384889126617772 13.992482775907085 11.427808473551345
Na 11.896020401625584 17.4845116019107 10.470297914530436
Na 15.880131302501894 13.21374137965219 12.449564427449051
Na 15.36749271528523 16.579284487416388 11.10368015831788
Na 10.261761043091333 9.960482486194675 14.642176899699804
Na 18.73117656564325 11.273605574894919 14.087417161307014
Na 16.423537751520996 10.178321808362648 16.460402933937136
Na 13.948686730573863 15.489218964603092 14.399965726507002
Na 13.864445795871877 19.13975474424647 12.976882379489213
Na 13.394535734889615 8.248704935907462 15.149431017788467
Na 13.588454970832235 11.8901915396312 15.066533057883468
Na 11.127007130185913 11.672818830778775 17.682760637993923
Na 10.940001612107064 17.115059261633462 13.961302226559345
Na 10.429802256528633 13.58221436665494 14.463249329732166
Na 10.678335748565576 7.9811513313432805 17.539575483778222
Na 15.496631288067746 16.284270309088164 17.914844359793435
Na 16.698728853391316 17.448468374292922 14.627023154463945
Na 16.952518111445404 13.807621569347676 15.896758466310862
Na 14.537695791313004 12.865030943212686 18.45751644468169
Na 13.672774998117909 9.410167346308448 18.49395400362313
Na 13.357185119125932 18.55122317433675 16.369123999699518
Na 12.030214165489344 15.21048159768437 17.252187962903978
