31
Energy = -32.5389272 eV
Na 10.923183044516886 16.803140631591326 11.16635209538321
Na 14.031521616989949 11.44105566255356 14.588034446435007
Na 10.874826492128173 13.432322959306235 10.26087939540792
Na 11.510178721490675 9.356319988313256 15.90419282191158
Na 7.939466055225338 15.082862483228348 9.690050022051445
Na 8.963784322713474 8.51681475779671 12.249936954616246
Na 13.142367457554345 8.537603195178388 12.534500209913212
Na 15.212440929593493 8.532752548928825 15.905197041365634
Na 17.152260062873474 11.77572297448736 15.976842656955984
Na 11.09039161952997 9.908670047713512 9.76299518942099
Na 14.287262930720527 9.06108898661445 8.722411255785689
Na 14.99285051919421 16.880097882052944 13.668754373163619
Na 10.925186991726259 11.300576264740695 12.986498685975011
Na 12.734711274584036 14.338126171053453 13.168925813864883
Na 17.936794258547806 15.323858164494105 15.366349438571962
Na 12.782081206917193 12.306270857345206 7.494024343838427
Na 11.20849393499964 9.219235867787237 6.421227896792086
Na 14.048011903824996 11.714746865603537 10.917511412139245
Na 8.149805534768381 8.834406361745456 8.553310198659192
Na 14.562258430981423 14.464303219300303 16.379355147481007
Na 16.563858389484665 9.890404476447687 12.717646119730558
Na 11.721750492367136 16.520005462903573 15.518731805530756
Na 14.055625405754773 15.162009152955285 9.98785811697388
Na 8.090989368784474 11.105615064535803 14.72248739571817
Na 7.770253056011429 11.657651389688688 10.969708460790889
Na 9.088686682235359 14.392848737532749 13.270383164875165
Na 11.12295941877469 13.00749955790931 16.29776901735768
Na 13.889526040540014 11.201156239043057 18.008144826245175
Na 9.153081649893377 12.200391975931492 7.475429975288753
Na 16.311187636619675 13.665755043806731 12.839818066958165
Na 10.9299993096201 15.532481768376494 7.640468409764593
