34
Energy = -34.81674937 eV
Na 18.609902921345977 13.085597214491486 12.721533231698489
Na 19.155896000551078 11.40458864093146 15.669691565827165
Na 17.922633957299507 14.217054246949967 9.476394017064472
Na 16.71191115723362 15.968356144384847 12.371478699428534
Na 17.31461618529436 14.769267304817811 15.596342687126677
Na 17.105641824372075 9.640456137011288 13.35440106495431
Na 16.394553751430006 11.201084949738839 10.343062990323181
Na 16.11368659963455 17.046704817785272 8.993321056815825
Na 18.014136628111302 12.993689635145032 18.40383436838904
Na 13.668907123781858 9.488772603649624 14.028284951050079
Na 15.120069052793227 12.832821968795578 13.225817567308589
Na 15.770270604638362 11.230599587350124 16.253438995070532
Na 14.44349245860376 14.137031464741169 9.96450258101174
Na 15.190863830662826 17.474081519512353 15.190656606106044
Na 14.64094032506902 18.59242304728355 11.772095506345348
Na 13.908958086082112 14.238357937348226 16.121833773436816
Na 14.708625678271984 12.824156507515468 19.190720674047256
Na 13.04233295664205 15.640466462642385 12.849595143107827
Na 12.629878977973796 16.994024539708803 9.144728312771027
Na 12.417912388673738 11.09374797734276 17.246579137908466
Na 11.812342335897881 14.591293846043124 18.85558272957244
Na 11.631891437374268 12.457390687259613 13.686381306502286
Na 12.940214317441821 11.09428039410194 10.70949529973312
Na 11.155773897228453 8.468580440305061 11.99921053428832
Na 11.455976564622542 16.56445594673317 15.922849838585298
Na 10.182925372497015 9.6671460378735 15.246639162476875
Na 9.729952198982094 13.225532890145681 16.543660192789638
Na 12.503328069739068 19.41612750301196 14.27308734180037
Na 10.568654127875417 17.94022730985894 11.774323401575707
Na 9.304652229577298 15.014228649347647 13.219499929581783
Na 10.921662216803332 14.240019957990457 10.088922390831245
Na 7.810547964201772 12.018616814813454 14.108959236671192
Na 9.399193879558869 11.504467952099446 11.045051139339266
Na 7.853600925341397 8.869884973667427 12.727821185675936
