38
Energy = -40.42055269 eV
Na 14.829235189778798 16.008379250043426 5.210420065458235
Na 13.694735100998216 13.5207461478806 8.012311228235943
Na 13.71968336784526 17.241104874360367 8.364091194373922
Na 16.962380397350866 15.693814516148954 7.963955013088116
Na 10.526841607749775 11.452149362833328 9.962832924395073
Na 13.946022803177666 9.919467424101372 9.140192397423892
Na 11.270383529706058 15.113743756481698 10.576818181050397
Na 16.821757407493298 12.317276482172597 9.789046101657673
Na 15.136741783691157 15.365521073891966 10.8502591268329
Na 16.494967277508405 18.445096363023993 10.536995794049156
Na 13.641122438337371 12.33271466529496 11.335571884944313
Na 12.928985260721296 18.024259495069213 12.042350916867415
Na 11.957687184829373 9.328539657551515 12.743042773271437
Na 8.42532920472184 10.229569733625809 13.195784077430831
Na 18.57800347466578 15.484226661474487 11.388529265561822
Na 7.977929982268476 13.691440930585518 11.866346684181975
Na 15.73268470938448 9.75875639568272 12.526323607283452
Na 10.765733201742464 12.639548526694176 13.293663219415198
Na 16.721742030900664 13.1892151965001 13.333374643879075
Na 13.349655957130455 14.998232723458823 13.599899978146341
Na 16.34066224667839 17.053122225311792 14.104988100200638
Na 10.11720371589955 16.209991668253366 13.920289651611212
Na 13.839541702579353 11.618708180617228 14.801184107475258
Na 18.641972418982146 14.73153023535053 15.927112985242404
Na 16.99951310001269 11.29466503240562 16.419364651784157
Na 8.304151461410276 13.229874822196303 15.708037402161866
Na 13.067014125431987 17.366249813357 16.13832094949969
Na 14.35241427996053 8.74012757278586 16.468088288381214
Na 15.24682037576882 14.390477957988313 16.43325042797308
Na 10.812668613464526 10.314967272680466 16.195347214114147
Na 11.736644780558501 13.895172816208254 16.447448573566692
Na 16.509573703602356 17.069944304283663 17.98224689816462
Na 9.930715803637417 16.28056288818024 17.8646859199024
Na 13.695022583283775 11.688683022786186 18.50173557771263
Na 16.923230480955034 13.506716982333069 19.3022222321112
Na 13.363624666421266 15.297807386809067 19.316163749560296
Na 10.441590214252873 12.905114839052175 19.348932992435266
Na 16.393941694457183 9.850407619883642 19.58669907791446
