36
Energy = -38.26431853 eV
Na 11.284978704076346 15.309343045180597 6.569537100361084
Na 12.521324437277563 11.71213100755099 7.464270035557694
Na 14.643028703090934 14.608502748094223 8.34648137779751
Na 15.936526562962552 10.448463923527871 8.726570271779945
Na 8.82298885254445 16.687464298539368 9.012214393843182
Na 12.484694216000765 17.611907363368832 9.386031531136739
Na 11.096965889934198 14.26109145355141 9.634574167234144
Na 13.053592361763991 8.56055560641387 10.057042529810909
Na 16.084953674952462 6.97396656002166 10.38926150426024
Na 10.203992247102175 10.836661355022542 10.448210346650313
Na 16.255723125573127 17.280149995969264 10.472787685692595
Na 13.68680386560086 12.057360696610314 10.652468037303976
Na 16.87067407938995 13.577004345092075 11.1331438042257
Na 7.023930688872297 9.945390784249048 11.550221762627507
Na 13.742534555953496 15.429916948257869 11.728718955993765
Na 8.039719471776477 13.742593081504703 11.490991044397827
Na 16.103144901410207 9.867379420978915 12.4630272368937
Na 10.370386586799258 16.79616332192384 12.355280798698098
Na 13.885302143856565 6.999675299834781 13.38340591861967
Na 12.522948724144925 10.076383333420264 13.243707241145977
Na 11.210894568908218 13.414349839887212 12.907076761824468
Na 13.747198388995795 18.550208229343834 12.865195698339388
Na 14.937707860463755 9.829693775960965 15.911148445967195
Na 10.064710425428926 7.761097426471668 12.578929290286261
Na 16.388046875735775 15.920202487942896 14.042346922534813
Na 17.72452227757368 12.316509010968637 15.17821115887551
Na 9.15638951917712 14.564220577711708 15.492459972721383
Na 8.970503911629857 10.914655659103413 14.22179185994819
Na 11.893217306162402 12.186988408004456 15.949272033235468
Na 14.683908412047272 12.828113530144849 13.911071792819413
Na 11.290199583761341 8.602054113211155 16.125296700327304
Na 12.728268364173031 15.827764805977793 15.239683185074599
Na 15.003314222354382 13.326894263793662 17.30994353957339
Na 9.152004799878453 11.43747799554599 17.850997106501172
Na 11.253672832694225 14.33112602447746 18.484635116664908
Na 12.61029744189472 10.855609846304313 18.87306525523751
