33
Energy = -34.7310783 eV
Na 12.635607803063513 12.49733770792988 5.908039648146726
Na 8.977430767590382 11.236659804075874 6.386392767008493
Na 15.009280263844085 11.61469531805364 9.029012100199449
Na 9.853865922699633 14.585208254459193 7.129762575428166
Na 11.211269976054755 11.932025723444106 8.881524057650985
Na 13.199892639720025 14.964105284322372 8.785061926570018
Na 18.282436323571034 11.4052682154387 11.038555334413713
Na 8.932153744240798 9.26062347643341 9.681452385621142
Na 7.591539519821844 12.723267405604505 9.481187426054571
Na 12.63832457903018 9.433852042761144 10.938219635522254
Na 16.102361327836686 14.475390782934255 11.479912436232764
Na 9.981317788240695 15.189745659323384 10.769729782736169
Na 16.214304058685347 8.418438560188436 10.793825458654984
Na 12.897395653416453 13.213174187311044 11.65890620984251
Na 9.799769043459204 11.732642539099905 12.022935874778625
Na 7.346993958910613 13.989007784407256 13.186217472041696
Na 9.048196527418638 17.124271496826953 13.67756331361488
Na 6.75464450821597 10.378463937823517 12.406995374498955
Na 15.399790063149487 11.184740484707692 12.720272491619955
Na 10.85476019801696 14.377395404550267 14.38354154031565
Na 16.704444568864947 16.48113445969012 14.362872277003149
Na 10.05414706865639 8.531514384115042 13.370030016703435
Na 12.347813148420174 11.1231134011929 14.350560745075269
Na 17.850706114290116 13.019807480084374 14.429460516024784
Na 14.389070391180617 14.060411068627557 15.04829527908085
Na 14.277759313119015 8.108199937245349 13.995940632410884
Na 17.813771213269046 9.244994787129446 14.06552583344764
Na 13.155467356359427 16.530961199097984 12.539415026944436
Na 8.91667538618734 11.440045096757046 15.521123507526946
Na 8.310359425749155 14.681157695289189 16.71490913701832
Na 15.2342866773783 10.811894499432356 16.392473620203734
Na 11.788005487023423 12.701986483883937 17.482920383542304
Na 11.95362249550044 9.055928750743323 16.894828527051402
