33
Energy = -35.02340704 eV
Na 12.832232801197764 13.810548947411931 6.157252698154149
Na 9.763551198168814 15.443377997471979 7.487281655140863
Na 9.762748583229142 11.815811668158439 6.672819333552774
Na 13.004983273838905 10.262942039885653 7.694529995192792
Na 15.19249625119971 13.320199514559004 9.03228975842737
Na 8.144820320650794 12.99425417406914 9.868174345088425
Na 16.034931248340634 9.627223211700459 10.045198536428599
Na 13.343277617650507 10.989561336981367 11.174279490514191
Na 13.170964000579438 16.44910436169302 9.010401911046674
Na 11.574712500286994 13.198062316886395 9.184718848092858
Na 10.248823925031203 16.010028825355505 11.25609204702432
Na 10.046685905955252 9.735852153203728 9.918251122378393
Na 12.890075590960967 7.480939647375894 10.811840599007052
Na 13.393749182065532 14.513185094716578 11.958888076129162
Na 16.214244929707267 16.132366139638243 11.285752299764136
Na 7.834362786475248 13.979904464338464 13.617755087589325
Na 10.492188185789018 12.552121730018746 12.451025084460202
Na 16.30791883361522 12.457274281463723 12.599210996619211
Na 9.544467876665868 6.755421087742308 12.316283254006644
Na 13.225592321836336 17.739437524256623 13.04677895604212
Na 8.015585271079564 10.124897003232153 13.056941654748393
Na 11.398430774139879 9.340911036389128 13.500109271375653
Na 14.99406195342366 9.064584324736142 13.81228266951066
Na 15.313305877882913 15.141693033026327 14.96618328967439
Na 11.208473654976368 15.221416231746852 14.860665933019524
Na 13.282354428061545 12.170006334625299 14.584696468699883
Na 12.49568251029571 6.355150657753605 14.502944097886752
Na 13.338307769531653 17.2760460940488 16.791965148054658
Na 10.05014799240571 11.762387241182662 15.9962359629359
Na 15.995094811220936 11.589674032795804 16.414260382987997
Na 9.42268662468209 7.98063924978566 15.82836864090067
Na 12.83993190384451 9.479466883305932 16.826226691317288
Na 13.013121250306861 13.615523515539925 17.6603078493241
