37
Energy = -39.74970921 eV
Na 14.391485234939976 10.725762542456893 18.469323792763923
Na 11.520699853574985 8.483045284563575 16.899412937265513
Na 17.150901075609543 15.341162427325564 14.416967648300822
Na 15.711670409803299 15.881002105567468 10.753735646924731
Na 13.454104413672075 15.101888825194743 7.816849245930255
Na 16.81691911603944 11.624910135551008 15.537074606735782
Na 12.309835848639471 14.663555274574707 11.136160150408726
Na 7.640645918937106 11.836118923501452 8.956519961807519
Na 13.508799914942813 16.63420433198038 13.880005133185541
Na 12.265354506039598 11.18916236174836 12.036683583741087
Na 8.010280625008138 13.84382660133372 15.007980697311545
Na 15.563651617423478 9.82809714875172 12.444623311671066
Na 12.254679396505665 8.007781216379506 13.287313393405787
Na 9.667551936677674 16.35602132900675 12.836977573606578
Na 13.331339766033906 10.92176312934682 15.286877044543004
Na 10.340850303392205 9.5203416100313 7.169221098774768
Na 11.504734075620018 13.735509959151093 14.452771261767536
Na 14.255021352726347 14.167990375013199 16.8006091410592
Na 14.644843338289453 12.443131849909115 9.892917696520616
Na 14.033227688989987 11.36874927409413 6.682109402937177
Na 11.221540405578455 12.325238156467133 8.70614511910057
Na 9.329671476825744 12.885715300961246 11.782379604818344
Na 15.15179452994141 8.200046221831881 15.884049056462944
Na 14.808141151002683 13.346931425340612 13.25906218985173
Na 6.448830593918035 14.446681917057603 11.50136848532847
Na 17.786639637185033 12.78779762986261 11.539766322471655
Na 6.732408066132036 10.798730721882988 12.659293734388514
Na 9.438963381790007 15.44287993962738 9.226188375748933
Na 16.964505804066537 13.767442684179779 7.8373950166344235
Na 13.202155596831222 9.072423474532368 9.50225659083812
Na 9.624986698350526 9.27107916803451 10.815865792152222
Na 9.764125303673469 10.684002285966221 14.668283044714233
Na 16.89833821743689 10.22693707166619 8.869689957192552
Na 8.62192495835759 7.642704901903876 14.00804023668767
Na 10.817197655461253 15.965461007833321 16.76565144462022
Na 11.084737631540165 12.324787180247222 17.683740546595477
Na 12.403607387527538 17.81328109560751 10.20285604221757
