36
Energy = -37.22186574 eV
Na 15.203247977487436 12.327463749902726 13.992038527121261
Na 14.559357755748206 8.778461892168705 13.681406401554042
Na 14.546387774841481 14.29011110481965 16.680835595801618
Na 15.832319973225186 13.4096876287234 10.622490168379707
Na 17.45277780130013 10.46157476849187 12.10536760201822
Na 19.123719114128644 12.447681693559439 10.044096069969335
Na 16.909305756111134 14.567635993174424 19.31423453039244
Na 19.145719616362282 17.331561217323568 13.506949527892036
Na 11.93392888741598 8.533644378871852 11.629817771332377
Na 18.5216844280732 15.737655330485515 10.560805621932223
Na 11.888698678865468 10.63789860323166 14.742526874350611
Na 11.39494461537551 12.627903697800235 17.623166295972695
Na 15.547961165815842 17.076290164190247 9.607649663509438
Na 12.541190233394143 15.92604213915783 19.048048351291342
Na 17.19089331378894 19.511418165983265 11.502264886702337
Na 12.900128891825942 15.314847582770387 10.487535363498559
Na 12.883988910961172 11.840874305727679 11.330244508768402
Na 15.741027322421708 15.938179207826325 13.121057058823213
Na 9.904171832663792 14.110555438552508 11.237777906299575
Na 9.517769555115091 10.734418856442117 12.196169591631167
Na 6.771850647196689 12.8015084025748 12.41855286237954
Na 16.257429912519292 18.912872416509682 14.957690842602
Na 13.84283538709184 18.757223122170117 12.27972189662382
Na 17.31131554992615 9.208112227480365 15.527954638337713
Na 10.917432459598079 17.200434114667804 12.876113724402565
Na 18.4300992342449 13.652412354039626 13.420562592717411
Na 12.242006323931658 14.157545761959506 14.015901140484466
Na 8.021744281451793 15.727023453866238 13.708472301661843
Na 9.183349700191602 12.767923319416472 15.071772175983167
Na 17.972456652507322 15.814643549719936 16.178094716887536
Na 13.242971651035928 17.26365235653708 15.451798734941356
Na 13.969818784238397 12.782077300308226 19.89374188919439
Na 10.212763596634002 15.838427063361443 16.424838482835334
Na 14.421098699691607 10.620277948763183 17.147779140364307
Na 17.59361532224577 12.392548714734358 16.68428447272823
Na 15.487342069505097 17.510461145611686 18.115909027308962
