37
Energy = -39.77837983 eV
Na 9.400668963220031 8.957584776659292 8.623231082912037
Na 12.59128535419692 10.919990521147358 7.5178924085800425
Na 12.178387423102823 14.413449138508208 6.243561297762591
Na 15.503435980562754 13.347385341651758 8.060449264552338
Na 9.307526613940036 12.730426617619903 8.079171431500901
Na 16.09991873594985 9.504225564679 8.68735914234851
Na 13.805776806059878 16.85865423998654 8.633075472163462
Na 10.887213277498788 10.995191474647807 10.720696909230622
Na 7.407442805666146 10.946361961524271 11.220715254008018
Na 12.888860413998122 8.07124709332298 10.295544206825555
Na 12.388149271937506 13.994411857862277 9.556134664586105
Na 14.335686997579996 11.389501378160928 10.727393717846462
Na 6.676765077115467 14.612860035887552 10.204057042654606
Na 9.947019421833865 16.40674260084152 8.935916937372168
Na 17.68188678399988 11.934433717357837 11.28188821498179
Na 12.046570434524913 16.73385760930454 12.064204869186199
Na 15.386426098127178 14.957340607475418 11.510640719085318
Na 9.5163780756659 14.038520782138178 11.593460729977936
Na 8.278341274520413 17.011170646733703 12.516154035596264
Na 12.442631302705147 13.375891182068125 13.014867605903458
Na 15.880975429239417 8.66517594675727 12.460465289122203
Na 9.565595669753108 8.11710228468939 12.478698492036084
Na 6.889159124245005 13.566396980303884 13.985466924817253
Na 12.656393917370183 9.847977044611287 13.474522945321002
Na 17.81741372167172 14.283260872517017 14.365103942347712
Na 15.278156385890485 12.051077767919526 14.0026407601756
Na 9.67226269250415 11.479654301860378 14.02016693087446
Na 10.192712092592464 15.006509644539426 15.134610051414668
Na 14.248108464428396 15.299875232702917 15.188182915847749
Na 12.956041583635724 6.591030789744375 13.879973252626337
Na 18.06809671517242 10.633495268399502 14.9215075323934
Na 6.988328399793333 9.617337130413285 14.75219172694546
Na 12.352101836105676 12.162217004779308 16.46863704803926
Na 14.702529335230775 9.196181667428965 16.16401013347905
Na 10.577456020815179 8.805872566653173 16.116099152733824
Na 8.622509631316934 12.088707437746958 17.12010399384334
Na 16.03641225303775 12.663505296364304 17.25582828591654
