39
Energy = -40.17730343 eV
Na 14.282786608456881 16.10462694245713 8.594145008337945
Na 12.6411305100564 9.838005994840845 8.42692841245507
Na 11.608595108114049 13.43322416361581 8.719135272878328
Na 15.306090952730859 12.423719413958839 9.275541178853553
Na 7.840726169774269 14.457544522594494 9.75085072797834
Na 11.039817016317404 16.932208286724222 10.355305802025256
Na 9.284177052772769 10.858195118853887 10.31237398952611
Na 17.049546479233552 15.230582687510745 11.406284200805757
Na 15.229251181671168 9.152404400898902 10.921386804556583
Na 13.548793136116235 14.601269597350424 11.444223337144747
Na 14.304612233269145 18.112353475482234 11.891960921954668
Na 18.595764896783486 11.544158388994775 11.82605253799574
Na 12.570164964698753 11.252764836655178 11.508982183397823
Na 10.176320049860612 13.772761430151835 12.052811668650039
Na 11.580153775156223 8.067076849282227 11.652514822013734
Na 11.128419608247572 19.553626968597843 13.140770021454019
Na 15.672531994837705 12.146300261207731 13.08770011379931
Na 8.346354032143106 16.586004499612578 13.023041825568718
Na 7.030898468439075 12.865998355216455 12.834445999791173
Na 16.698893060705753 8.901726924300322 14.11650298188186
Na 13.318570586634882 9.517011564004132 14.652091946601512
Na 9.979486143523799 17.830834951230592 16.33830890193318
Na 12.500885025809534 13.004371035255181 14.526601199428624
Na 11.715600610379365 16.351525931444346 13.906424302964885
Na 15.06265359804158 15.534359335555479 14.398369281857782
Na 9.848691843456386 10.653946091162325 14.006259664838781
Na 18.418932558652166 14.477058004336687 14.78766041247671
Na 17.340504970036623 17.95125682770275 14.247100082819331
Na 18.659102813386014 11.157981391473154 15.635972921677812
Na 15.383606875510429 12.797631608603348 16.393398886102833
Na 9.339974759214419 14.105315028867633 15.653352632959734
Na 13.76027824075997 18.57274237575002 15.669658674571135
Na 12.085556170153653 11.50993881427011 17.554775650504162
Na 15.638954727541332 9.797228781323833 17.738744436472437
Na 12.621095428000467 15.30953986843466 17.324630883539857
Na 21.20374881852441 13.23727940109949 16.927621044779155
Na 16.27445499970565 16.136316558779804 17.54865414887902
Na 18.1307190352275 13.026582245006734 18.561797286046453
Na 14.69204659492713 13.104418166263175 19.69751092934738
