35
Energy = -37.21053212 eV
Na 12.572571925466256 13.352915305164677 6.739733450017226
Na 8.828079333486022 12.764994523435556 7.9409261776233135
Na 16.24632515483759 13.924367149886345 6.985477423367569
Na 13.70066022696133 16.526747929716826 8.52516901019594
Na 14.948870326938387 10.479779366593835 7.707222005103253
Na 10.992788045603088 14.599410958881457 9.72065520640481
Na 11.624353508963686 10.764220972320086 9.225216565945187
Na 11.260303928177665 9.268389247729653 12.455996156500227
Na 14.35905941797784 13.287157560840077 9.730487331957546
Na 12.904749589810073 7.301681162541411 10.151245182787989
Na 8.915268788325635 11.816573500829715 11.480111035412992
Na 16.812170912157097 15.574151048623866 10.19390069837866
Na 17.524637543110362 11.902242105060951 9.972351619245932
Na 10.515772444872692 17.757368538497513 11.234481031702165
Na 14.796956696034176 9.958001409899234 11.29056916937012
Na 10.686711741776909 6.02810514873562 13.183165973791128
Na 7.660325456037341 15.279973152834812 10.883161553761084
Na 7.837839031626236 17.14797275385721 14.09342991458364
Na 16.92838449292888 9.669086851714164 14.131566591418053
Na 12.367028648065915 12.520125896130788 12.285950305267779
Na 14.065955797504508 7.211684607578836 13.74294555892587
Na 10.200852013135655 14.870664917293851 13.224166562529044
Na 11.387551491842634 17.62695070019976 14.782269419180553
Na 13.593918384808136 15.985638780821898 12.160545713366089
Na 13.665649247727128 10.618760493299277 14.726916872462605
Na 7.146969020376717 13.474846197810333 14.241849722584554
Na 14.834194662821849 8.557157869875972 17.153257135764186
Na 15.856572016030137 13.11453333186575 13.110168498648738
Na 8.200727716653972 9.063633698180952 14.04563929052288
Na 11.308870961898993 8.244493754611273 16.00067690225091
Na 13.09470435367617 14.183470555818692 15.41754130549489
Na 9.627758638108455 14.873040235392969 16.655035579418907
Na 15.9065397258013 12.063567326820069 16.798118512298124
Na 10.173834022618744 11.69034464040847 15.092978554244748
Na 12.378479475490895 11.423383048380392 17.842508711125056
