36
Energy = -37.54571682 eV
Na 9.5184055387682 15.352510867601957 12.364761247025482
Na 9.89931715609052 11.965253275385278 13.051175616862869
Na 9.49894594559379 18.85323747462668 11.681923571467102
Na 11.379493436514256 8.89881037817787 14.023274591160195
Na 11.936636395799585 16.92309252570393 10.093691539906343
Na 11.822386436437183 13.513747118689258 10.375426231111653
Na 11.790001680813889 10.204132848972254 10.513059345496055
Na 10.588958372184281 14.367133001378182 15.6447538820653
Na 11.756356398783977 6.939450824890809 11.318208659781348
Na 11.452948313109792 11.121365011688264 16.488613307514168
Na 10.198448495210249 17.74645621084147 14.940942659865032
Na 12.887961558537857 15.544262823196673 13.32029897071305
Na 13.387114123623842 11.912774058530927 13.406643966020008
Na 11.612518931373543 13.537661918489112 18.93586648891502
Na 12.76848993388899 19.155604755080898 12.85591296852596
Na 14.521147144807612 9.512255920064579 15.74126959071562
Na 14.94446461235665 15.13916730441192 10.501216241658657
Na 10.761683698217928 16.948181487909366 18.300193891387107
Na 13.987311031146952 13.932066156131265 16.328790047350317
Na 15.097217016525766 18.682607225769637 10.160943182952337
Na 16.71995164703385 14.032509974881945 19.244231591898682
Na 16.142887468594065 14.16193922581718 13.593539879581137
Na 14.562815574369388 8.564554352848239 12.221276469022076
Na 13.499269918535916 17.87828553530531 16.027024122517094
Na 16.5488335607037 16.468375431257773 16.536507872183595
Na 14.392696783653395 11.351071841327096 18.727060784353352
Na 15.064201059975622 11.61675233972664 10.268509291608545
Na 14.1062323277435 16.264136014800194 19.00669403439482
Na 18.020120485163442 16.873859519484533 10.756108913572893
Na 16.9663586292081 10.645673725194017 13.090877407881797
Na 18.96108293778254 16.34707662084687 14.081420071002372
Na 16.934071741613753 12.071085689236808 16.287905059777113
Na 18.103587042678605 13.315699644175593 10.765879883616122
Na 15.794550318871446 17.707393635935002 13.448601372620216
Na 19.43554422990993 12.809321234837475 13.97662294842814
Na 19.453502119529283 14.61722209933275 17.115881859980487
