30
Energy = -30.4688899 eV
Na 12.505314872836768 9.085905912314786 10.203152655083692
Na 15.195249691619232 11.014838418513158 9.398800012723841
Na 10.51464280332738 12.081520090646244 9.750942280080034
Na 14.433306570886558 14.2343590104361 9.28760170964057
Na 13.147473241655598 8.743093429213227 13.58198405137872
Na 16.28823135708296 9.946103338229348 12.39083816160114
Na 9.94021519029083 9.98771968530374 12.537783977021695
Na 15.490728844100838 16.816960561569886 11.491988075481972
Na 9.930251664531973 13.324208242707591 13.395452739366556
Na 13.052137663232314 12.06864277740926 12.136521409920926
Na 11.517934450786273 15.157610355398175 10.95460303085073
Na 14.20722562706502 8.885597496805058 16.837295337380844
Na 13.403067265227703 17.38678210864281 8.777685176925074
Na 11.41770584567639 10.9080507516942 15.553161491510531
Na 14.739209298456423 11.873099431365175 15.145085852889336
Na 12.246884116318363 18.350977199851734 11.824260349284405
Na 10.316292170461999 16.554848558412914 14.28342658568477
Na 17.34572875444018 9.558378541089501 15.594780041552276
Na 13.293133932483228 11.700775509006771 18.423818741600325
Na 11.549348973627488 14.161795798827846 16.748525949350014
Na 16.346601561735003 13.454614996211033 12.30420722388309
Na 13.571938550116668 15.128950259077344 14.07222290106666
Na 12.46711597809183 17.4070243338183 17.196908206066453
Na 15.161896190051994 14.406446211624749 17.371463152296606
Na 18.055230696834695 12.926541445876152 15.54040447533291
Na 17.10443625303532 16.218577283090873 14.39218133748628
Na 14.529289718969414 18.57085308542789 14.406943829564607
Na 11.277412412093575 19.798244545930356 14.824927086276464
Na 15.911604239153135 17.69474344632911 17.402356818922073
Na 18.566026188621652 15.643809156777042 17.500128575921572
