39
Energy = -40.62918635 eV
Na 17.100895067670773 10.322158707550228 20.158829587065345
Na 18.620852019877173 12.784968048265617 18.378236609882777
Na 21.028404885934886 14.633410171974182 16.62076828931406
Na 17.897802361730996 16.010277329234455 17.28383175850365
Na 15.307400558830286 13.531015720486606 19.995648009129816
Na 16.20090667880752 19.023349861577955 16.960373184437262
Na 14.290328878782041 16.24711924350671 17.992184694731243
Na 18.68677609819744 12.651309412592445 14.95310550351649
Na 17.368454970139492 9.829710317376117 16.589072607043995
Na 14.179980926992826 10.391662509842732 18.298935185968084
Na 19.335177692225543 15.838723351890822 13.824781222197942
Na 18.797339359742182 13.024112094983607 11.42077375312835
Na 15.51534684697227 13.17523615362881 16.47784939896495
Na 13.03640223079191 18.480296255298562 15.443906503696873
Na 12.255269883000752 13.346331488054808 18.326645463408813
Na 17.84935975843007 18.853888225788257 13.767435206973039
Na 15.061961664149491 21.08030941549912 14.364634080358858
Na 17.639714837202646 10.013617725892393 12.999095702619833
Na 15.712958657943071 16.2932673056622 14.636713542342278
Na 11.857378484545238 20.721940115660036 12.786597964658842
Na 12.761973683615217 15.951993277168244 13.013259799442157
Na 14.479094467053162 10.067768791677718 14.748954397947697
Na 9.8546321890746 18.009126765258767 13.691750315768527
Na 9.255489480403075 12.919062244608861 16.588284603141705
Na 14.767236198539136 18.597950142791362 11.927547087469247
Na 11.32896074525958 10.21867630299744 16.442624249010965
Na 15.55618311177911 13.136072395022197 13.03243346360065
Na 11.029637984701314 15.861603537018247 16.283471459795813
Na 16.917343841161987 16.06504291734818 11.348116575451401
Na 12.420595380869752 12.998058658447775 14.704314402949402
Na 15.806167404495747 13.01436260369264 9.466887884479156
Na 11.519107568605635 18.307639677388632 10.250833050327694
Na 14.76103360390069 10.098765526629782 11.098297388216428
Na 13.81975575304217 15.875678735214306 9.588600529381074
Na 11.684438221753172 9.960926225246101 12.843333685541278
Na 7.8064437619219245 15.196721862358512 14.34963150155444
Na 12.48765603850297 12.947983544453503 11.11348930928578
Na 9.951028030003297 15.3696837914858 11.128119338847652
Na 9.430265489100453 12.443941653866137 12.958718113346862
