39
Energy = -42.00641945 eV
Na 12.564130894924931 15.096355992837035 6.2714741402433525
Na 12.685843665424139 11.573095974001221 7.378690642431737
Na 9.70796863425104 8.94131081632324 7.661321906867583
Na 9.041339059728646 12.617206657443317 7.087741179209654
Na 15.108332547172651 14.223571577002247 8.704082963248394
Na 12.774697649980208 8.556483621945258 9.906203905843455
Na 11.059626924363569 14.520525695378813 9.249127240133054
Na 16.09725089367061 10.492226714146984 9.390763902968994
Na 10.040168881113251 11.108527947565104 10.028574163622407
Na 10.141721630597432 16.653530432561872 12.00251525440611
Na 13.181553789896398 17.41339458403 9.443584534091302
Na 16.57661649949116 13.027078116986788 12.094405833705823
Na 6.788648056550463 10.283092931034062 9.544099262010805
Na 9.243267380251941 7.812306982907735 11.300394970233487
Na 16.293362664050928 16.764801704330548 11.491268797270681
Na 7.67269502974728 13.764974587150306 10.657852729640982
Na 13.446122649271794 15.060059432575787 11.93275902262845
Na 16.03405964211294 7.102556446029482 11.244265881922885
Na 13.301880139814209 11.950930307408235 10.714107830358971
Na 10.480697189789774 13.203498189573127 12.570145090365111
Na 18.273113427145333 9.758657622630567 12.558843729627782
Na 7.817793412641283 10.822220703942754 13.115711048074493
Na 14.890096332848739 9.709950241763861 12.792587428298598
Na 11.40647993440715 9.899995454753514 13.045281031350413
Na 12.865415164252195 6.764813925617135 13.334957310789145
Na 13.285694146639168 18.04016000060062 13.589478432339794
Na 13.545547652901382 12.35476129785935 14.254476738376475
Na 8.119320282299942 14.527268538976173 14.66269440406657
Na 9.689261824957246 7.94385222090692 15.133018011743738
Na 16.31624259859239 7.520974007617699 14.949716707321375
Na 11.74179374300173 15.015970834494587 15.018073959735068
Na 15.514268563341277 15.162163500901123 14.937119048068164
Na 9.97160632301083 17.71119502411368 15.630331908141752
Na 16.526640694781637 11.26112215148892 15.586492382056994
Na 10.262494242015398 11.654132637052106 15.988051004721623
Na 13.256508253870546 9.294981695950732 16.1476900158419
Na 13.470593986089655 13.065144566808048 17.601198366579105
Na 13.120077125297295 16.8730620111035 17.34359593659635
Na 10.048248428289195 14.81522481077296 17.998483243653187
