32
Energy = -33.69869943 eV
Na 12.62229877566602 9.253025291978817 7.899937946875945
Na 14.136243018627486 12.699788796085707 8.750811381027036
Na 12.082494982340613 15.853500534193131 9.320502465921098
Na 15.940903389742381 9.43883139620566 9.425107168105823
Na 10.380189143820978 11.926205078812211 9.432321738132204
Na 15.422316087800114 15.818343107747266 10.769135583398683
Na 13.523811276496467 6.997855806811805 10.59449862335395
Na 13.062013500936455 10.231792538488126 11.169431946043442
Na 10.072042154656119 8.406263225720764 10.57513595027951
Na 12.536344828938827 13.525519404918677 11.8057184555519
Na 16.06421946301736 12.376731459073929 11.941308779140067
Na 9.162021739066708 14.488328313740642 12.001901903811444
Na 7.363159673550319 10.734000398305254 11.092947441866594
Na 11.985150775103824 16.665042525170506 12.773713051065034
Na 17.833852112168014 15.293496270011143 13.491244765575317
Na 13.615442386102917 18.944246978161075 10.62801067770328
Na 15.540927412314279 8.774705350671685 13.193451588374586
Na 15.31505158640448 18.00670353590397 13.747551187934718
Na 11.991408341830649 7.986485489021569 13.843502993774045
Na 12.032494625514076 19.734888501768733 13.897653175268925
Na 14.506397232528089 14.743411433215458 14.268908817002133
Na 13.418914706027145 11.415834145365773 14.502385907261479
Na 8.388767259603807 8.308611237305197 13.865285779774025
Na 9.452645479793944 17.262771432400395 15.140506443785267
Na 10.123937296895528 11.151450107448012 13.041209778295565
Na 10.876826571625323 14.002136172032264 15.27125853968167
Na 16.713481209004197 12.395057287288209 15.649261888924936
Na 12.793934056998927 16.92465576764454 16.416002376293623
Na 10.71564702798921 10.211461271765373 16.365048529045566
Na 16.36088797267243 15.878821906970314 16.816503347076335
Na 14.198927785498485 8.898028678343628 16.622796422206385
Na 13.579922362063042 13.464680792229478 17.499619582248
