33
Energy = -34.82962858 eV
Na 14.386013896332228 10.951845837991248 6.842641023796918
Na 11.202349677154302 12.87901040014191 7.3311298984561475
Na 7.802136801004144 11.129727113330476 8.300932457117135
Na 11.008436674876211 9.363419676988629 8.6104863612292
Na 14.946118981535571 14.347700825074568 8.16723113822275
Na 14.65313106889656 8.624104008690043 9.736088271600867
Na 8.379752338855754 14.608107195956515 9.255089801666687
Na 13.387320978462629 11.713072961757 10.000210896479851
Na 16.93632264430535 11.570348495774546 9.814293099210348
Na 8.44162971695213 8.996297975083648 11.436696255935884
Na 10.08716054310178 12.089100053384726 10.675568061943698
Na 11.949718256497547 15.17014948836653 10.286415465742984
Na 6.870652676943702 12.416021401626425 11.946241231394751
Na 18.067221031247396 15.021683300006552 10.593500174862553
Na 12.012112609650297 9.172548643919908 12.202414672818877
Na 15.039512646729548 17.170209436422308 10.6484240816603
Na 16.84599823651611 16.305920964445306 13.792911097260921
Na 15.290855855227983 10.413234268889745 13.008691663561883
Na 17.976082588172225 12.717325625168044 13.607456188531176
Na 9.666804035605757 11.384811430252817 14.045414807882208
Na 15.198864753858507 14.00327546530173 11.882145085258955
Na 9.560455511614663 14.938061200623352 12.954940348708602
Na 12.470163712994104 12.78969624455567 13.188848256965208
Na 12.827411464070062 10.254113596953944 15.638208193478658
Na 7.58382784213968 13.496982354617789 15.764730493092511
Na 12.940207651417793 16.26434622017936 13.65653783819138
Na 9.823830868496422 8.0727956851708 14.857523419479167
Na 16.336060458017595 10.74431465235548 16.451444979722567
Na 6.805629313766535 10.0408499281221 14.953971283417628
Na 14.865304233703279 13.759613362887494 15.647772602847665
Na 9.762941960091842 10.927931697707361 17.517902007043404
Na 13.320200922559158 12.169432627230764 18.545792309962486
Na 11.182470223669752 14.120648035490884 16.265046706923254
