38
Energy = -40.57203075 eV
Na 9.261113483242756 13.908543830051135 7.507656657585171
Na 13.009834238549132 13.581392825725317 7.633415074200343
Na 11.569897672318191 16.802751835567047 7.744531280846265
Na 14.33306414881179 10.159240545695786 8.826656662740975
Na 14.635428810814181 18.732594076556087 8.518262858430495
Na 16.449432434907067 13.11654448452034 9.600835079589512
Na 10.542454902949947 11.000063620723735 9.063460681167308
Na 14.238597263885978 15.972744987463628 10.39018987550534
Na 17.891409978053943 9.65164090264927 9.956619321215742
Na 11.853289506135644 7.466866112699475 9.413552354524441
Na 10.070818193271792 15.264606205604478 10.567557131187645
Na 13.063814617315197 12.876222569872182 10.913202222798125
Na 7.487550675143241 12.559588550988058 10.61693263084073
Na 11.939567593606682 18.45900425563701 10.810875337096363
Na 15.147083579537624 7.455352383781371 11.345578369255184
Na 18.701000562247188 12.136286463253864 12.496781494577052
Na 15.644949796631543 10.830856987605483 12.214636010298406
Na 12.417319444356398 9.621830617166792 11.933985120992658
Na 8.919756672841343 8.93150805998445 12.06015395937513
Na 15.740484338653756 14.319146656618251 13.237839679065367
Na 9.941787943017115 17.81099440549175 13.505996271462068
Na 11.985915223780136 15.071347864143394 13.451545768365614
Na 13.239734296123512 11.910208394710143 14.424250116322337
Na 10.110175876976419 12.139173870283006 12.675073772660252
Na 11.780439995386551 6.558747879729734 12.9792882832353
Na 7.497684446257416 11.10058540472372 14.726446588785377
Na 8.123786979930033 14.737801425445333 13.786803960411717
Na 16.458899474547138 11.503595742526187 15.71707851052039
Na 13.920451038770196 17.687921320154114 13.853820354189098
Na 14.386586133367217 8.56592854179689 14.905023471981261
Na 10.369983172018717 13.209727297392476 16.062688240228795
Na 17.922068842828146 8.722877896769287 13.653282293327583
Na 14.049825805151132 14.465059357014955 16.644518301966126
Na 13.082538976558327 11.020098676263151 17.724880035039238
Na 11.145159587089596 16.57873535588475 16.656490906531555
Na 10.702468289482377 9.475805419097771 15.247435211412984
Na 9.250236464530715 11.054599264687221 18.259813310884596
Na 11.504432389361423 13.929048760170847 19.261885649833022
