30
Energy = -31.06021511 eV
Na 14.590622250309838 8.695843890604078 18.36420646445897
Na 11.28901869652785 8.058818723811019 16.830121808861264
Na 11.1106049761518 8.695374996296982 13.237990152746118
Na 14.038120362482283 9.520320320498747 15.111630397832815
Na 12.302857137885987 11.354828552305815 18.247951653446645
Na 15.600802738594846 12.094518653898454 17.204609090707663
Na 9.815787843659804 11.059362924355383 15.589677060662135
Na 14.014792348178714 10.532564605566318 11.56565118484088
Na 16.55995952893117 11.734790891984217 13.785030666854915
Na 11.278640704614395 9.623366193056716 9.592852546480739
Na 13.16144045143437 14.878936172708803 17.706781568329994
Na 12.947404672059038 12.899438601221256 14.789355875114989
Na 9.690999369774076 13.767934097152548 17.872463359798573
Na 16.796219562118022 12.164847123673832 9.84090789491842
Na 14.428897120966349 10.215982480996743 7.765745234990831
Na 18.08692618723295 14.492430971537447 12.331316302105721
Na 15.979675531144371 15.036634218306373 15.122181766635364
Na 10.839590778464155 12.132824558307572 12.075987251299917
Na 14.462568847771992 14.152383936870281 11.681414716275995
Na 12.506284848788644 12.941424505214222 8.822297354285736
Na 15.348609414675167 13.53636247822521 6.866039577380346
Na 9.61397605880962 14.497247814770972 14.469519726123956
Na 17.292865225950386 15.579601547604907 9.07037983515974
Na 11.095984926689448 15.45318620588551 10.945863754731247
Na 12.858632691904006 16.467180084337812 14.119439814944943
Na 10.359406888037174 16.994880773331854 16.82112447189952
Na 15.784865058586057 17.37798349513919 11.893079504103042
Na 13.83118040328802 16.26995772197361 8.711670714756446
Na 9.745186886702289 17.849834603137644 13.118199804108928
Na 12.543202592297936 18.633472132533928 11.076430763815498
