39
Energy = -41.73622372 eV
Na 14.484228785527153 15.661912395978375 7.622595366013575
Na 7.853101377868178 11.682440273958635 8.700353394463006
Na 14.902069020269849 12.215206395703959 8.88088731837201
Na 11.41666696118331 13.648299048980409 8.854933174639891
Na 11.368498036526915 9.942312427527831 9.445657910016319
Na 17.519864749184578 14.74631917002821 9.910967712661963
Na 18.569657955237293 11.071355852887706 10.786354451583012
Na 11.785281762675067 17.385443059227644 9.863276366658585
Na 15.499298303823238 18.077602253032698 10.27065452892456
Na 8.138301386065077 14.934271505982048 10.453314271872866
Na 15.211097107392513 9.411212877448449 11.48530249804461
Na 8.032208506063883 8.927675874859338 11.157793059078148
Na 14.21354771374955 15.094892414737513 10.928297196111789
Na 12.875143461660581 11.929591719201698 11.794572671669382
Na 9.42542309956665 11.929415826590127 11.70590926704809
Na 6.023853383593294 11.936709698223295 11.77787903149771
Na 16.197784315952703 12.64308527277745 12.442050846799187
Na 11.03982089493455 14.9546202481262 12.359158359669278
Na 16.74444051652749 16.185725784097563 13.398771312857939
Na 11.166154942550557 9.072274970496155 13.23266048547996
Na 19.40590326161632 13.415413924948702 13.668615651008896
Na 15.03486293429205 16.413373508347252 16.710559338389924
Na 9.256363703605661 17.62630985214178 12.991852626327963
Na 8.038262613737244 10.41970093601626 14.720884511544053
Na 14.172099552089328 10.527423831213508 14.87810647318451
Na 16.544368194238942 13.177683034747638 15.857595669312245
Na 18.95212778739986 15.433370518768667 16.731447658989957
Na 17.779559221187 10.095275274356437 14.413714373621051
Na 7.9551949134030036 14.18647563282413 14.248838221833932
Na 11.019056008179076 12.311915554925951 14.837599775826899
Na 13.78924971190457 14.317446998626956 14.346242883479983
Na 13.34370653533949 17.664970281459997 13.449543177991828
Na 11.323368335813134 9.694524243201544 16.973241974810886
Na 19.37484616438196 12.025617322884472 17.371278768979103
Na 16.668135467478717 13.845531959021333 19.163200113109767
Na 15.997242124512976 10.43288921593194 17.942669401337284
Na 10.992268505365619 15.809692738313126 15.88883761937634
Na 9.113939358114397 12.721485247458407 17.537398000181064
Na 13.26151765636563 12.919047184324386 17.6854988666091
