37
Energy = -39.29421496 eV
Na 16.683104761680582 16.335094864868605 9.45193202808672
Na 12.699633568907114 16.33134641412465 8.859673248802636
Na 14.497584911067108 19.526437875319 9.755636655254758
Na 11.543946333328941 12.377143909051606 9.242434498979184
Na 14.777279215638568 13.593225077879316 10.35688542060392
Na 14.513831049858661 9.973853462008426 10.159665336942815
Na 17.135923811296404 18.908906550017527 12.035208873139949
Na 7.622784167747616 9.090856168640611 12.986389123213522
Na 9.061569104642277 15.612186066303545 9.76434378836109
Na 17.560101221660158 14.918237438145153 12.788778638166042
Na 10.952886576406085 9.065761405266404 11.019840580674748
Na 14.3794540298746 16.90204372498117 11.965960897876494
Na 18.01460053626907 12.138688790878419 10.414257943399024
Na 10.986326028848804 18.3686775918912 11.42195051494237
Na 11.517956195571017 14.898392094332689 11.89603326658868
Na 17.591923668835193 8.764102255492084 12.199445719230509
Na 12.606106150357657 11.701775225940688 12.474507298259692
Na 8.939093339245774 12.367528507414884 11.984978236843954
Na 13.790382326729931 19.985616653226963 13.317130739918298
Na 10.309472329034149 6.728060337871557 14.081841233703198
Na 13.895245920447193 8.445430598335694 13.400864362677146
Na 15.982680618642874 11.517694989256576 13.147063433778225
Na 10.526838600360788 10.124566655910034 14.504575335480563
Na 14.17724170782911 14.281281900585322 14.144727019719904
Na 7.6229702354516435 11.982254248671952 15.340997775106791
Na 11.930305433481804 17.14739227516183 14.757561618898565
Na 10.791158539033782 13.680651748082814 15.183575527703333
Na 19.28390584766915 11.536944987242778 13.925785747772677
Na 15.76096786955039 17.138148865305716 15.254032057221751
Na 8.406482994644525 8.338528289137265 16.55543437488862
Na 13.711510452143305 11.348435151367877 16.10832491675714
Na 16.651172746287585 9.395235979079454 15.812144454349419
Na 8.561169281746945 15.854504118628967 13.487316325793643
Na 16.983316090378853 13.293847074729728 16.098397778184452
Na 12.417770493103097 8.133418856588655 16.695318402725075
Na 13.494523072166087 14.723291763177551 17.417665833064188
Na 10.412817791063913 11.2644751060846 17.783358013893324
