39
Energy = -41.72237912 eV
Na 10.275399510485324 9.658178115605107 5.944812896351868
Na 9.216046563908472 12.505551465273333 8.016119998031192
Na 12.69980354159638 11.23234192326655 7.860968566351565
Na 12.430774535597944 7.480320575397293 7.880051355954234
Na 9.474264891910433 9.075176636507363 9.40031809664761
Na 12.248351634203466 14.704438210788537 8.928911715633339
Na 15.835995371099045 13.908386214893165 8.43508695394019
Na 14.517807370976424 17.41377604359022 9.514414706944024
Na 7.560643560827743 11.566811355154508 11.482550418462267
Na 9.083459662230423 14.929696441981756 10.683248953071981
Na 15.726990603951752 9.748767230866061 8.987442399140265
Na 10.869980672990618 11.947016959506485 10.978581795351124
Na 17.78900445165386 12.082648267619247 11.291513414341653
Na 12.779890334297514 8.900495183492133 10.911738732181488
Na 11.000897432388966 17.920861680195866 10.247079818821653
Na 14.300140736124998 12.20413830459876 10.874680813404206
Na 16.194906890467408 15.455804409090662 11.777068050661319
Na 13.26440992211337 18.000297426999282 13.020654784029453
Na 9.537664570434282 9.060616624064277 13.101574814854832
Na 15.810631977782354 9.140005377271969 12.691480599466324
Na 12.593884578030035 14.718064856841735 12.68903409473091
Na 10.722172784933408 6.145615096014064 11.100121775672509
Na 9.465026373439825 17.13518606174306 13.389351777449365
Na 18.57037108513676 14.294033542096432 14.28309731547574
Na 12.60106647408701 10.916020968775442 13.743980573563375
Na 15.573477703572554 12.58881856855078 13.979541165342084
Na 12.649234660500252 7.373049329906385 14.15766646894739
Na 18.327249934622515 10.55589624067309 14.85374369882118
Na 9.87558415710843 13.169870028945537 14.207969055871953
Na 6.71544854291898 14.486854667873668 13.293069400451227
Na 15.161244754690934 15.767239433657602 15.263936707502292
Na 11.56094828429229 15.967240353819527 15.94440816714489
Na 7.318462097130213 11.286762021126982 15.407422558990561
Na 14.886616116155684 9.679014225873457 16.213455910719528
Na 13.08445655748773 12.876656746415406 16.626009385381092
Na 10.790264347616285 9.807313983551058 16.429351758056654
Na 16.696624833724236 12.847277362974967 17.12570411290608
Na 7.933642046289239 15.4344129090913 16.325148036796158
Na 9.72607960908834 12.884264331770833 17.80760832840032
