38
Energy = -40.83367836 eV
Na 12.237712422114438 12.415404395978111 6.631582153560473
Na 11.050818653109388 16.00260453269318 6.896224506023354
Na 8.670211571217385 13.089248023644398 7.249310884453848
Na 14.351244092592665 15.159299754971737 8.557037656794527
Na 13.647357006786574 8.208287586102427 8.642761999684266
Na 10.465548946913925 10.200379003526354 9.099369475673218
Na 11.063121818629812 13.88622723003558 9.484799025634775
Na 8.316216174052018 15.98031544479304 9.61933036590225
Na 13.960052257912118 11.62474051820304 9.674253887246786
Na 12.044726967802482 17.298395565039066 10.36219234775472
Na 10.918842703099306 6.589148400993954 10.49030276777095
Na 7.9198730950429175 12.46429652820192 10.887290566493068
Na 16.792165909483344 13.346538803237799 11.385585697149613
Na 16.315875880385523 9.173117603125299 11.348585199792044
Na 15.864771562465295 16.90022459127918 12.019547444227088
Na 12.744052622985352 8.922948219588033 11.903791907360329
Na 14.408827246634209 5.974997608405338 11.69716644264052
Na 13.483315607126622 14.500907470238456 11.885385859073736
Na 11.100327116955286 11.857168118669945 12.176113194821058
Na 15.584408713900432 14.285203504435383 14.86759275473951
Na 6.773440670855278 15.080915596362583 13.065026470715344
Na 9.05415042835162 9.107486092006422 12.559282372803937
Na 11.474469065695924 6.601024322911691 14.203960537560452
Na 10.073007114248993 15.339825151311846 12.654427318257499
Na 16.275753984111482 17.297896673884367 15.858647689246768
Na 17.70168744447548 11.345881707564262 14.447628094326348
Na 11.831054883319037 9.944816844491442 15.27132425378197
Na 12.88854039386881 16.997050601102185 14.321404212518273
Na 18.697317983439465 15.198269146214185 13.943362224303403
Na 12.166643627303392 13.512895418200923 14.998847356927026
Na 14.477839490062816 11.427540385785164 13.328736021365582
Na 8.63350374900911 12.219231494583738 14.622853393088704
Na 15.038853911328653 8.250312966812066 14.682018231795356
Na 13.387171237075101 15.28195139859398 17.65996444181733
Na 8.85451945780877 8.687882190459593 16.100783573272917
Na 9.779159577452225 15.61463088887469 16.20387204735542
Na 10.949954089304411 12.293800664100381 17.89210400397327
Na 14.619268242725576 11.534941273223488 16.923339339740394
