31
Energy = -32.26098126 eV
Na 12.575138824390809 13.720903846115077 6.263750381245922
Na 15.65879145371035 12.80104652989117 7.887913621688462
Na 9.965210886523751 11.57599469927989 7.506453423355405
Na 13.860392912015795 16.031741006101235 9.162554146507167
Na 12.582120338151759 12.636330425787849 9.412735749800332
Na 10.282161487403787 15.304414703651396 8.749649943151079
Na 15.021035276580307 10.014331674472775 10.460637904869287
Na 13.251330430238532 10.091975376608218 7.111095881141392
Na 9.330623951383888 12.341069590621412 11.174032021335995
Na 15.461186554938976 13.592595536767178 11.438935202219728
Na 11.971795929632176 18.41639230008053 11.299134140720993
Na 12.574604455773029 11.573190796437357 12.523121977244829
Na 11.355982539976383 9.200737390789989 10.223168060845104
Na 11.663268562955935 15.04126197418781 11.90211931017827
Na 13.671521583523782 19.71145188399934 14.541951736601956
Na 13.321773411736393 8.255300297658424 13.47503878928268
Na 9.871827727722664 9.82803015350827 13.839887808423105
Na 14.766260644180718 16.9059317782674 12.74984495655367
Na 10.015262208602437 13.458538848697286 14.592771401541716
Na 15.92575377166058 10.994002178232137 13.917995259386856
Na 11.613446415051065 16.86628772050066 14.959283234507291
Na 13.747367380816453 14.061865504758654 14.560174363132521
Na 17.165868641468872 14.394411415045129 14.62512913070972
Na 12.691829798395734 11.032412963348644 15.785038556622062
Na 11.62981396403414 7.949053663735765 16.839816409626838
Na 9.6980260193864 11.14632361581286 17.452315122730433
Na 15.131247631240127 8.878723742916595 16.866378879229877
Na 14.77480276380351 16.64594056673961 16.624620612896514
Na 12.036527484605836 14.159011984405486 17.660492109026002
Na 15.523833738742992 12.704145879127909 17.35847726495324
Na 12.897914942557557 10.703303683657955 19.0722043316763
