31
Energy = -31.67792945 eV
Na 16.796863007056754 12.692125824793631 17.30174722834176
Na 15.575901840789982 15.837572259777794 17.572368210815625
Na 13.842482887907602 10.771378368234915 17.879203322072854
Na 12.591074015103027 13.948642915414517 17.476799335660182
Na 18.096008760534502 12.07658548101938 14.038153368602618
Na 12.837842835020375 17.719933918597214 17.397996607808796
Na 10.946247625275943 13.205838007860349 14.508207629264001
Na 14.505732504816441 12.59371628200339 14.72841889826807
Na 16.94523956008998 15.213190477176063 14.492559272624703
Na 10.51976934208737 10.718675291014094 16.896663969961136
Na 15.566952230322826 18.400616318454375 15.127323449326902
Na 13.059413522145586 9.37343313835242 14.790195576840828
Na 16.41993526101145 9.502648660233122 15.937133467376844
Na 13.127995492932511 15.967393683930272 14.432276166759374
Na 10.045151148036256 16.092795679127622 16.40341424464553
Na 12.488194761994148 7.830475148565771 11.88482555442096
Na 15.787001992260928 9.918968248544893 12.463441320226327
Na 9.766201984496748 10.051047705835746 13.389868906818283
Na 15.920260739584304 13.43637112613451 11.480492929184331
Na 9.798575299893445 16.181447419914658 13.037003699960273
Na 15.399619173635484 17.010376276670467 11.979304641028527
Na 12.701631799684456 11.576757166920252 11.849426291570305
Na 10.470501081859602 9.770743993137291 9.934735287251877
Na 12.499741164199607 15.017096616747812 11.078082416843067
Na 9.208553965563924 12.92718134924751 11.583646478051524
Na 14.304013090324657 9.419272498156774 9.438978005259422
Na 13.997188070306537 12.652650618682985 8.664951799449335
Na 15.356132125125587 15.782036562045718 8.874978728273517
Na 9.326168142020821 15.914009074811583 9.702153926499763
Na 10.542184514402612 12.823649137103823 8.441360920203811
Na 12.155039027342943 15.695931903002291 7.668410926947036
