36
Energy = -38.3835823 eV
Na 11.630255128643 10.528610735087037 7.764103663129096
Na 14.177047547190478 16.65620981689146 7.556390831054333
Na 11.178930854055059 14.548519346599964 8.05753033067793
Na 8.696272694077077 8.541007702831623 9.063606653937669
Na 14.795043893682857 12.940674107319108 8.046502781800523
Na 12.177350080763658 7.008238424404956 9.09433225685614
Na 8.184790872061235 16.188783970268688 9.079181447117419
Na 8.885877532482265 12.297533622370429 9.855017586197881
Na 14.583811549038451 9.635633312657149 9.857588650276604
Na 11.312930852442785 17.955777356106314 9.706540795042992
Na 17.062927829872404 15.54082692303507 9.55579974233278
Na 16.03083668507213 12.612621441828564 11.4770351385731
Na 12.372293959344093 12.493031851087988 10.560726031944446
Na 11.064075428704648 9.511111284196797 11.246578813839157
Na 13.713892665748988 15.468918717018724 10.582013448222545
Na 9.882683922388608 6.518971650914008 11.898123153797359
Na 14.979177962060385 18.47959870056131 10.67432020236057
Na 10.1279273053166 15.327639879548206 11.78806992474151
Na 7.947525763935444 9.58465962744213 12.917906227242655
Na 13.630797680498834 10.656913406522337 13.249715575387437
Na 16.105455855885612 15.942757049767847 13.338896729871289
Na 13.525283434263867 7.206064331686911 12.675394258201585
Na 13.158693219871195 14.107012000402827 13.557176139975901
Na 12.541342026336443 17.52765038440255 13.459679379935446
Na 10.037169510492978 12.267578719064293 13.37548334061924
Na 10.473856206941372 15.166538519130164 15.600323257078204
Na 12.381443666385579 12.09249605292129 16.130483747997964
Na 16.033293407193543 12.50333560611451 15.289692119964066
Na 16.654180668203807 9.219951787177399 13.293898948385666
Na 10.931666496185098 8.934572762681608 14.922636044628385
Na 14.466055129480086 9.128562209089317 16.257653477150654
Na 14.031033954158223 15.316930455102053 16.73298550900787
Na 14.756334217475029 12.13017444512467 18.657918088804205
Na 8.848124007350767 11.548146841538932 16.526934299621658
Na 11.318080185267625 13.683086085515182 18.9149681971137
Na 11.637754522407473 10.064077588866997 18.569009922389704
