38
Energy = -39.68308163 eV
Na 16.644140282488234 8.368014747751392 13.738662385619417
Na 17.004384362893816 9.946884790320262 17.09983221989964
Na 18.856104043850223 11.226066637439034 14.413027174668333
Na 13.079798905624932 8.778787167085085 13.880212691094039
Na 17.675363656392058 13.525032704336377 16.619879462233452
Na 20.59560626982125 12.23116374255702 11.579024225675253
Na 17.061257491530455 11.281018918108831 11.471487580903565
Na 15.740933177049545 12.404584565204871 19.347465133520927
Na 19.975991122181586 14.630731174389968 13.983527549418396
Na 15.186484850658335 11.444696116938498 14.559066743870122
Na 18.33188846942788 14.812681421618842 10.705609878759317
Na 18.766047057159597 16.894177090197275 16.30750502556731
Na 13.307368465373262 10.191432859440452 17.23578228449588
Na 16.275807253272824 15.800144401718143 18.779564374276774
Na 13.265372002414862 11.721194710765854 11.677907995090916
Na 15.376460226569804 13.433591415741905 9.317736534680717
Na 12.748386183464078 11.335003729227413 20.560051232841836
Na 17.97012610516764 17.500479254854735 12.823187594244116
Na 16.38536707542308 14.288131245063427 13.466715194197198
Na 11.541098434653358 11.955863854964482 14.773924078719412
Na 14.018411179800006 13.978516701077899 16.57482129661718
Na 15.21387298554248 16.4550972347571 11.005284365889949
Na 15.323677073498104 17.055789296366935 15.35126664105769
Na 10.818385823787262 12.646913150762696 17.98926764286289
Na 12.22431201067131 14.713097475840367 9.706169882914123
Na 16.780170281319705 19.108721979746036 18.31809617984133
Na 12.897086843759993 15.115748950106223 13.383439505421402
Na 10.039683170001831 13.343035687508355 12.060381575216633
Na 12.939196235282376 14.808151549278882 19.785002266746247
Na 17.765761088627414 20.078660069366986 14.971838506112258
Na 16.96000093730204 22.351725484960088 17.314086764365964
Na 13.288229499657836 17.762250934958516 18.089460992083254
Na 10.980276772920108 15.58657776893258 16.39573384250666
Na 14.81978046551729 19.418451984634583 12.784645113180977
Na 14.28032208006132 20.638858940950357 16.19971636352137
Na 11.998687461646103 17.901811826047513 11.24125321468325
Na 12.016212806199617 18.48563603917573 14.830420970844434
Na 9.602356314441064 16.522348613592968 13.309740893546307
