36
Energy = -37.95093132 eV
Na 13.809688780185455 10.210646977965029 17.902061239147915
Na 16.8691604271835 10.61381895311043 16.132271427353274
Na 15.621536754072089 13.562244602196277 18.18917034149792
Na 18.04845085163657 10.77288876741527 12.683573616555234
Na 15.326575647955295 7.415931649997395 16.16665371849312
Na 17.20604446479185 13.931020550150178 15.000765746379896
Na 16.96977230784675 16.898131183224976 17.457226465153735
Na 15.059650336750872 9.249697857925657 13.318120428455225
Na 18.38862376880399 11.571300133492802 9.237899646107689
Na 12.251007340833949 13.225621198508914 19.0634283496139
Na 18.4868509155741 14.34925590242241 11.58617998875911
Na 18.253697935053104 17.138753624043204 14.131908578474153
Na 15.205165226903093 10.284506107016034 9.880472948337824
Na 13.583852718410526 16.53762888391368 18.90179704753658
Na 13.61309157964573 12.563562342523932 15.360222248787178
Na 15.22388873104598 12.895847827492746 12.127726415558486
Na 12.027706443448666 8.744071047551303 15.002331969848392
Na 15.04860380655302 19.744112441042834 18.16131807555913
Na 10.38836527902489 11.684963998883044 16.268328663027194
Na 15.927404409889007 14.100734186785019 8.83467319267689
Na 15.559608054417046 16.520542242993244 12.011748163623949
Na 15.452261985242528 19.279217352710997 14.710460096023871
Na 12.127098161511183 18.828352861008838 16.258529658265797
Na 14.296613896246265 16.087268228975923 15.4044719853937
Na 12.112318288616535 10.990656084876456 12.194901588130927
Na 12.203911143579 14.784245396528279 12.795611427529415
Na 10.991663609932798 15.27961206051904 16.527428003618247
Na 8.981999872340078 10.240256676343414 13.275766695873644
Na 12.774293880910927 12.834851886250993 9.171423914831774
Na 13.167914182731726 16.415584445916792 9.426803481372383
Na 12.55989052857484 18.3722976299067 12.634881907962901
Na 9.499324129527375 12.7076619117654 10.418976118925647
Na 9.042875796305132 13.806509556191426 13.813432967817104
Na 9.562162824989901 17.4501671108849 14.184552776981207
Na 10.57391561433456 14.863339889748321 7.557944142319774
Na 9.877333911199418 16.377508601672712 10.774607634225932
