31
Energy = -31.61478044 eV
Na 13.833043107907582 10.466385734208808 9.566551436521104
Na 7.735874876267899 9.509456820457643 9.647574667863564
Na 10.444223774668064 12.090902564090385 8.517701454828828
Na 16.90451623320984 15.784356726090198 10.24674234319676
Na 10.686380127205547 9.763414338954885 11.230082676752739
Na 17.102212933959958 12.27127664231004 8.88228094706028
Na 10.812012100131932 15.734807432725704 9.758141791205864
Na 13.968702364850833 17.759151772453 9.094953803074434
Na 13.956877174828616 14.193111121899362 8.642780771044754
Na 8.333247951122733 12.77627224713469 11.337492464764267
Na 16.614558878715044 9.925260746145621 11.785798461711506
Na 11.602414511553906 18.715838422611448 11.708729471461579
Na 9.212489137165447 6.717250900158299 11.743106336404667
Na 18.716127138606964 13.09061035756198 12.149537657597943
Na 15.36443907445258 13.091304734869492 11.817134551088907
Na 11.999404175090365 13.023416742005692 11.440336864753737
Na 13.80076937852417 16.21458082610957 12.145982403049631
Na 13.010854683831125 7.2504000386066965 11.827769160854915
Na 7.658890251909006 9.67309477519785 13.330393466100968
Na 16.71236922751055 15.404902377100967 14.230692205820601
Na 10.128044527529873 15.378272014877254 13.406459564923935
Na 13.551089992050326 10.326612126109454 13.415185333022388
Na 7.3336545799529285 13.083485169298475 14.855079280609976
Na 10.381271080960982 11.772776157006515 14.194035666160698
Na 10.811670094311388 8.240462581476239 14.64841029339967
Na 13.292923063182213 13.912363329136914 14.771574444031865
Na 8.866708019810105 10.403378100545043 16.895315810560025
Na 16.404075523191228 11.870957299531394 14.973278821255068
Na 10.184415734884036 13.814029008911497 16.971247247764214
Na 12.661467403564854 11.07990805534929 16.827330368747884
Na 15.420168113535636 14.16685607154991 17.443195468853688
