32
Energy = -32.47128626 eV
Na 9.841264888344188 11.040426471565613 17.885144406296728
Na 11.189840459455464 8.908229737604637 15.4305228177896
Na 8.184800529078839 13.831433309869418 16.76490585197091
Na 9.727134008497975 11.82706998288056 14.391822619953892
Na 14.42537427570057 8.254952952496453 14.499046259995415
Na 11.138401804274249 9.755323278894949 11.975966479816476
Na 13.252235618003096 10.919599261756163 17.94194786612349
Na 14.129076861636987 8.574754816697075 11.104772583151124
Na 8.063735635424798 14.594709088671442 13.260865576057414
Na 11.672672252490988 13.877072359892386 16.84942663759378
Na 9.977901548549434 12.838358667914548 10.85309834313852
Na 13.276267922753803 11.678989311473503 14.382600017781442
Na 15.902249866859563 10.439056978527208 9.007970415314396
Na 9.907127748399004 16.639265520815144 15.577117299907899
Na 14.625893863596506 13.463953742259848 7.890035666863963
Na 11.696585082081405 14.684514987059897 13.220900202495434
Na 13.52627709897193 12.236381080947169 10.879313812071842
Na 12.09625220788915 15.23798844401919 9.642317324347669
Na 15.125259278029366 13.84716194904835 16.931007481268086
Na 13.45522124309011 16.550528919853054 15.707511649849797
Na 11.67838315437828 19.320153522331147 14.410704276682866
Na 15.301850173955652 14.521022483634326 13.193832557007461
Na 16.195720105652263 10.538748938863021 16.330679810408306
Na 15.66602868184919 16.02951125788526 9.88166599663901
Na 16.290727779698507 11.077959200356972 12.787314279959169
Na 13.415254218640445 17.523845637944984 12.054789993775566
Na 17.428812821374475 13.15571459377997 10.318356108189995
Na 16.9560635043239 16.484678286449963 15.79876867795095
Na 15.08774382995569 19.408767239699184 14.846901636431042
Na 18.08495648955918 13.254413952166825 15.316173669069395
Na 16.911777262991503 17.91782764898564 12.437300650395827
Na 18.856219822538304 15.156575249385583 12.610392968218815
