35
Energy = -36.05348231 eV
Na 13.180551989309205 14.482949665794756 8.491275430499632
Na 15.465093161744836 12.064022815973397 7.897127775339602
Na 16.424399399539507 15.039619290731483 9.844670503744661
Na 16.522678030558126 17.583267476826332 12.12761921374706
Na 13.370828142071794 17.192927818644506 10.340960684846754
Na 14.89625607691857 9.621216190938316 10.418399728519784
Na 13.373657419898912 19.561985107833316 12.680357097052623
Na 17.75342727312211 11.896691830875657 10.527848549037625
Na 11.314351195562631 14.537724738844105 11.411847556211942
Na 17.43007207263767 14.342013008107322 13.015563801078708
Na 14.397191268794208 12.763846267319497 11.847789318407061
Na 11.918919667057288 11.41690391449671 9.64510447635116
Na 10.84936035337185 17.33221420196262 13.489763462516285
Na 18.171647500969993 8.611083110591835 11.639237510353288
Na 14.028916203268755 15.62999859214443 13.765873907073198
Na 17.22437817779355 16.659758032569613 15.473060281795458
Na 15.941138682910816 19.770948385992703 14.840211952674885
Na 15.214219463125279 12.423000775154469 15.395380624274901
Na 13.055864310934082 18.138201507533203 16.072378217903665
Na 15.85505186631747 18.520571988853657 18.11433027085113
Na 9.331400389904445 11.683498551810901 12.05589943159484
Na 15.467472507974687 9.204277963957123 13.815941454344676
Na 18.33044340443763 11.171570190992488 14.030561191373332
Na 12.21526852051875 9.708625123144127 12.674614333974981
Na 11.856201745848015 12.827136197903517 14.490896781587827
Na 18.26219506241541 13.572478462311159 16.40268178547197
Na 14.638575903239458 15.241579741382756 17.45384214757052
Na 8.794811602498761 14.655138534910039 14.015086515155824
Na 11.025235058433916 15.564611377839261 16.69800709630894
Na 6.822455147057606 11.866412033279468 14.503528916003326
Na 13.054085693213196 9.675899892011355 16.157867062198477
Na 9.74646488387903 9.965769558478597 15.088582782210036
Na 12.569051534278453 12.625529046924967 18.023622275731604
Na 9.1371689224555 12.778259165252747 17.064018903902298
Na 10.545741755004206 9.844831903290602 18.569776645478914
