30
Energy = -31.36656592 eV
Na 10.325460335318034 13.765798060452624 6.9714069499587685
Na 11.432963674281654 10.250246610361664 7.911366379551603
Na 13.742420722529916 13.222227449234504 8.489319166719854
Na 15.108710953198631 9.906404196430548 8.435017163922742
Na 11.596773659742603 16.143065917674782 9.504406171353947
Na 7.9627029072368645 11.490693985695374 8.666917100643806
Na 8.039111141454628 15.076663285627767 9.596082420592014
Na 15.532873491805915 16.082648878484818 10.533503481068399
Na 10.586883976819971 12.890410927714216 10.24875175682012
Na 16.11915043835664 9.23479205951164 12.79341792732997
Na 16.393982174609683 12.576730617586517 11.314292481696773
Na 12.5931448523357 7.6264986611304915 9.926693551711974
Na 13.282771351662973 10.750677226358853 11.116419393750661
Na 13.284442764903096 14.280711731076169 12.095918973664023
Na 9.859076477488689 9.529261339350933 11.326461700170842
Na 12.53570547534368 8.954402303466921 14.090102866961125
Na 13.340041314606648 17.501275553324 13.313857955937168
Na 9.990766489985306 15.46882423146284 12.89697781418647
Na 17.85183644180369 11.887372166377446 14.80745855768154
Na 7.758963727230604 12.402626122017168 12.269093394994247
Na 8.944868841739794 10.008640970493966 14.897188401878209
Na 14.518170624865634 11.97154456032574 14.36928330539162
Na 11.070155445516374 12.187440408102344 13.712740798220265
Na 15.539969080078151 9.633876121600899 16.5321621999842
Na 16.10936150229675 15.070953886833818 14.225673451771689
Na 9.57871870132599 13.642985655455401 16.49904760455906
Na 12.780333207065732 15.114812131907005 15.740154469994568
Na 12.31499434493956 11.386454367143216 17.058792013963544
Na 12.204650156081815 14.402532475978187 19.014272183576253
Na 15.430763658940375 13.369196032386133 17.47298829550981
