40
Energy = -41.63174024 eV
Na 7.829281289165675 13.252235680554197 13.482043609619533
Na 9.782840896892841 13.130231087278549 16.131696018152937
Na 9.814362745901535 16.102623553598477 13.996036276385551
Na 11.699898825698419 12.394111625900797 18.786714483590657
Na 11.821125767548104 15.727095756389106 16.83016679920856
Na 11.743663936683129 18.854508838063825 14.875306715817976
Na 8.706735545479724 11.662321074055374 10.599683798258246
Na 8.042128911047264 15.298243803574522 10.65375361023664
Na 14.09544935001735 14.710325178735749 19.24817553315076
Na 11.389777101332067 16.71877552982256 10.551001384885613
Na 14.181948357631512 18.193653714948972 17.16317645450683
Na 12.871445972496547 19.542167551394748 11.673993840177985
Na 10.028625337252524 10.415413366015672 13.78588946367804
Na 10.490527960804428 8.610444225541913 10.877875768441202
Na 11.866566843938438 9.586377769954922 16.58261524661665
Na 15.00758145046049 11.085939543409442 18.54440972503568
Na 11.331171631995788 13.37934898430596 12.299315548738509
Na 13.280138347833727 12.564953551384978 15.542692818910005
Na 13.329426139428556 16.051860178122777 13.459803506067455
Na 16.526139317413698 17.01225300840655 19.22771696004302
Na 10.426132457801511 14.003746168379218 8.480083766137748
Na 15.120103336286531 9.202315149233534 15.652130161797425
Na 13.3868465512748 10.211185321295634 12.70904365871627
Na 12.127763144506087 11.146995649275466 9.316904566187276
Na 15.598235943452535 15.148522532728162 16.03950588416534
Na 17.539099002337032 13.619273189732905 18.781996679348612
Na 15.442927512862667 18.931859199266317 13.795977965805443
Na 15.338400133117494 13.16907496942473 12.847605406109052
Na 17.074206999743733 11.955123925600152 15.713294309223489
Na 13.729107746598812 14.199158076907972 9.851888843516036
Na 15.256096795943144 17.23197688140793 10.609452953011742
Na 19.836424120409255 16.387834684487977 18.595232538546963
Na 17.83718608688018 18.00074771265227 16.055302384204687
Na 17.0630706133918 9.858021513859846 12.81126742453993
Na 15.512573151736506 11.153765359332242 9.941850434045506
Na 19.25006202814004 14.69538987121833 15.701082699608724
Na 17.40077155546209 16.070923049841475 13.090824583561885
Na 17.302444181920993 14.257863932031077 9.995390546168682
Na 18.937081224864585 12.890187965443484 12.836183915297337
Na 18.96062441428313 10.981250623773581 9.91551889345857
