48
Energy = -51.74934025 eV
Na 14.501442907064542 15.86583217141989 7.198380604110073
Na 13.639387600550602 12.159261709576988 6.498983023274919
Na 10.717455818997882 15.058466941838423 7.561368220111986
Na 16.204597483527177 9.396823892707552 7.176255473023365
Na 16.6729989823698 12.797939406832107 8.300423452258423
Na 12.659558026731847 8.637698468666066 7.176836264661627
Na 10.62570022526169 11.560245946401892 8.835005842266385
Na 7.541234224412838 13.652363231580882 9.293344701987168
Na 12.292099345428799 17.349074998527627 9.92428894636792
Na 13.377653939701512 13.97916871283113 9.633994579023973
Na 8.530581123252128 17.184361613815376 10.016127246164725
Na 15.93532192188984 16.472260598109152 10.971182805628574
Na 19.282999268572958 12.774603160379714 10.890380647236528
Na 14.09813402311103 10.571345254078423 9.636275278304408
Na 17.38730865305452 9.800331879885675 10.66157001048857
Na 10.21946443725386 14.521159134135903 11.095008888268419
Na 14.94806795141248 7.2315164999979205 9.886630083941169
Na 15.875791811914828 12.939627849518555 11.785199897433824
Na 11.472283807699261 8.492005682092465 10.662380239623046
Na 8.528078062014334 11.39557866776204 12.211582319633518
Na 7.181866079316834 15.225597619469925 12.838421104364294
Na 12.068393671011211 11.960732866740603 12.318837824747556
Na 10.27499124112328 17.385817119057176 13.368640911661323
Na 13.141384131789188 15.379591384615532 12.911382425792565
Na 13.692015662020005 18.84882539957964 12.865446896445752
Na 12.22732029786111 11.506104954600897 15.830633925942927
Na 15.013343120657352 13.38880374820666 15.031267910969525
Na 13.229188723551273 6.389638649103672 12.991454623132919
Na 14.412872077387066 9.839041053189217 13.263738117271409
Na 16.62673683032886 7.563178114210953 13.858968459997177
Na 15.868673696747942 16.997159273241188 14.9746704128676
Na 10.723805969480534 8.863009260786258 14.105503588080888
Na 9.782871752886127 13.741269716168885 14.578577721473092
Na 17.89839993559013 11.310436451971794 14.209836329426173
Na 18.34021222914771 14.981157041288041 13.688216617719034
Na 8.545706181321648 10.630711416955542 16.285456275890883
Na 12.264612986486343 18.511805548465173 16.403280809640673
Na 6.733856650385148 13.812817002192936 16.2616996197584
Na 8.991558981825241 16.581504251478183 16.78134897942375
Na 12.344243844259177 15.244578010970796 16.296702153026416
Na 13.44737359883634 7.904030817385801 16.19176361717262
Na 14.889230986236617 16.5580225283485 18.349673885204652
Na 15.573408278579532 10.551410367150224 16.918942924601264
Na 11.456726262212705 9.866979470775503 18.543619080741436
Na 17.475548776017675 14.014813184352805 17.081288373030937
Na 9.919027216323396 13.322852493401443 18.329350277698847
Na 11.49016024403113 16.447709241627315 19.406627699399237
Na 13.66941087382505 13.125837107968868 18.69253082417132
