47
Energy = -49.06000036 eV
Na 20.209596852315336 17.16037932342111 12.462647773985479
Na 19.20055540809928 14.184996303225365 10.8277855917272
Na 19.918404250663475 16.688939240225594 15.878528217483975
Na 17.61287502541157 17.214743219134057 9.798483041901605
Na 20.128565230126775 13.766969168305227 14.103841531084989
Na 20.034272055875487 11.011662684894127 12.108985121789077
Na 17.75791937048272 19.067278142571844 14.450124025543817
Na 18.618496696994857 20.12373924105513 11.268029864149485
Na 16.689834448827014 14.243197780694487 8.328472660604747
Na 19.911456879875985 16.61082412931115 19.34037137516591
Na 17.59772200577405 11.113024556306755 9.647919189016054
Na 20.14795564348865 13.611488270361045 17.65161124249035
Na 17.05337025905749 17.76611207530848 17.643260540042366
Na 18.61215704025061 10.998613871615552 16.144174174467448
Na 17.05529970871762 14.213125679234553 16.149971267313415
Na 17.001146083310942 15.902386811403469 13.09201405257665
Na 18.118783225887793 8.622477941419854 13.7774977803458
Na 16.880236710656714 12.183625950596166 13.091270906961338
Na 14.525499959345881 17.69465009335659 15.089205107084007
Na 14.487588133986216 15.794352193730795 10.463796840542166
Na 17.077474364715368 14.72472088393623 19.744105991685004
Na 15.219787049626442 19.154077992021495 11.955207623178156
Na 14.436832203701037 12.332724147731954 10.38542024845351
Na 12.493413452025317 20.53236280304209 13.715551930581617
Na 14.116551951909939 18.390038476041553 19.114069311188064
Na 15.374810257633698 9.114088858881603 11.671945342400363
Na 14.10096383335576 14.10784326119016 13.777679008649102
Na 14.146530029797821 15.116904961998852 17.606590675921158
Na 13.99215475762333 15.662332669001206 21.21537302870643
Na 15.29678129803774 9.943567256542924 15.392070209638947
Na 12.113947069429864 17.278942744083338 12.273366243146766
Na 15.676594259783444 11.752685257791203 18.372602740866686
Na 15.246469948060374 12.440184875658115 21.804648204608696
Na 11.59718902708933 13.854589053832076 11.233015263486555
Na 11.662920719144731 18.823243730907304 16.803759104025378
Na 12.709655670223436 10.700805042083157 13.050977641001548
Na 11.361073249680882 15.474282652490151 15.30468856765898
Na 12.778662699331434 12.03381637923245 16.36409726373469
Na 11.236610399150237 16.193966325335097 19.278742688490407
Na 9.568082761885226 18.583351850420335 14.084840162651107
Na 12.42860812922787 12.734451709210543 19.8494906164571
Na 8.935714783640636 15.311009841660386 12.61276911732701
Na 10.021064910040769 12.279487124699484 14.232868681113468
Na 8.751321393652185 16.807210549449188 17.098876296784084
Na 9.819237026971429 13.241592648889425 17.748491596137246
Na 6.504360090793651 17.034991715613646 14.318529022361792
Na 7.321800360584547 13.90934788431658 15.509706273397791
