42
Energy = -45.19744137 eV
Na 15.345420678184682 12.895670808314607 8.939745920259163
Na 12.525582771243668 10.653223463643421 7.641588176948107
Na 12.394386007880572 14.894134816189583 7.600453398692105
Na 15.712611144541277 16.639680682702583 8.297497647592534
Na 15.932007417643206 9.123857537594624 8.503719751371232
Na 8.66355440417288 12.666318467506171 8.809340032400632
Na 9.935487589817303 15.916948371111866 10.506442920926231
Na 11.83701621879529 12.762196987563623 10.250062803717821
Na 17.325630285670005 10.8539378649408 11.672657813384033
Na 14.629407374543552 12.867762380806427 12.434473155452526
Na 12.532893601964153 18.412297733355242 9.194698352552612
Na 13.84006082044861 9.949196218932114 10.873446352908209
Na 6.3232755713197575 14.409958544251248 11.208351521737116
Na 15.4923207691656 18.446431385294055 11.56343455449206
Na 10.160123562179052 9.45808753986483 10.47202835418106
Na 12.921673764790283 7.087243639428275 9.335313834136423
Na 13.665899569239432 15.69167111876346 10.781677968689191
Na 8.978436338028871 12.613621739967037 12.289253102223167
Na 17.167441917920836 15.077464370721312 11.55833970880516
Na 6.233387010984448 10.943246903270225 11.134771152948076
Na 15.859269133862261 7.318796594609082 11.77371677911222
Na 12.232109805015394 7.514565096260002 13.028330975170563
Na 11.875464152994551 17.96004084398088 12.916637783152808
Na 6.5199538579635465 12.65146492919492 14.700972435094153
Na 11.79613666509304 10.922277743237249 13.362282369376091
Na 11.654034433135894 14.502226717486561 13.34400539621767
Na 15.041895856879135 9.70047346546259 14.386875224609197
Na 14.768853950875034 16.08792241940959 14.305520534042522
Na 8.67943497777573 9.442485476562446 13.927537607465577
Na 17.045123256632813 13.002286322612688 14.761988705084399
Na 18.241936836003262 10.027694187115529 15.924858800060989
Na 13.546319031686101 12.840390798780126 15.706580683605678
Na 8.541603094616175 15.724987851341673 14.11949671400011
Na 12.095425475500214 9.576469053647124 16.55613180787883
Na 9.9343565999734 12.363817539733722 15.802036254921022
Na 11.729887312122115 15.928791342903862 16.46613958873786
Na 15.523642811552296 11.280163556531566 18.04401487254177
Na 18.102704029530262 16.11236777537279 15.600559807809509
Na 18.937653289097092 13.186256843838027 17.67763942682668
Na 12.099707251132573 12.955130703925917 18.754905981024766
Na 8.60183912952312 14.523063751366344 17.807573897828323
Na 15.409828120768019 14.869172302670945 17.81869372228694
