48
Energy = -51.96329764 eV
Na 9.710895380820155 12.636548624182026 7.833424115742779
Na 12.313209864926527 16.034363409767998 8.532006307558355
Na 8.579549695143347 16.166955707885172 8.489253692818025
Na 7.80312781803786 9.365856412750215 8.765776646854786
Na 15.994335734276955 14.19181861949361 9.490454643784137
Na 11.452612216364269 9.265806679880127 8.46791791585067
Na 13.753803297320461 19.050781007496127 10.875182319019771
Na 12.810234932996664 12.6204885918893 9.665759379638294
Na 18.201014082154998 11.185850435844099 10.097277397979076
Na 6.810727871802095 12.676569191357821 10.11194913265535
Na 15.060260322322511 10.025610622404058 8.92401542472918
Na 10.39619407616974 17.920107158412474 11.172228928330577
Na 19.423394107506503 14.414009908305523 11.241510569366165
Na 10.091934479261417 14.485822050045323 10.940655558291127
Na 9.760585644951007 11.020261302197321 10.972060164131282
Na 13.52045487329079 15.735013458137582 11.822982790158388
Na 16.987559411218133 17.491850619620394 10.70558453533021
Na 13.591130912760063 6.811563943537523 10.225611410388545
Na 9.923580871417562 7.467025021501324 11.263235409851523
Na 7.32666033083981 16.158213799946076 12.017491880656541
Na 7.03058308400155 9.341083034154527 12.390453113648425
Na 12.948526402826465 9.705595211317009 11.863570610363936
Na 16.397305850327733 8.583300299234756 11.91541152660497
Na 15.32053554069873 12.153044585029601 12.369700419036734
Na 19.304853369218588 17.586294009679325 13.479011252658779
Na 11.927598566309603 12.842265791759218 13.334026517552388
Na 16.835092688978836 15.075550625501718 13.318870430252147
Na 7.997775936161999 12.804220155784368 13.53253757697457
Na 19.808106196930044 14.378978383184993 14.916776860575567
Na 10.26170396249426 9.934806203059049 14.315471508090738
Na 12.569764390315806 7.058389946717709 14.110529267917848
Na 18.406633668175104 11.233930387550403 13.583310575404484
Na 15.770624769931327 18.464673383827257 13.976254475275384
Na 15.0114707618202 9.688398802218433 15.05726334856722
Na 10.087421477243119 15.617324492685642 14.425212640795731
Na 9.002431915812661 6.822563798791808 14.713048583707973
Na 12.235715453884499 18.411503616724694 14.335247531434517
Na 13.928682107486509 15.4046045654855 15.275641264912457
Na 13.036298094347327 12.268180526147562 16.425755475595313
Na 16.596947459554656 12.82121122024482 16.146211677087514
Na 17.309712269808756 16.490606707180802 16.661658462993806
Na 9.617290635917172 12.533567572063626 16.78610313011563
Na 11.885318111612824 9.072356064219727 17.261033892529483
Na 14.18121539484318 18.138361085459834 17.330980105914605
Na 14.975576916940621 10.582147872319469 18.61211614949678
Na 11.423723219530679 15.51678640004442 17.831001141601053
Na 14.778054473938115 14.509658661421707 18.728932222950696
Na 11.812457254725901 12.208765930955993 19.66217791222415
