47
Energy = -50.69749707 eV
Na 9.288012900646391 10.969810969817539 18.29699671615782
Na 8.853284789808733 14.604124581818127 17.997865696390022
Na 11.973947108555857 12.949051784804873 17.534291180638633
Na 9.008159547434378 16.616191972796962 14.913155239569432
Na 14.520136347553803 14.792709166431086 16.22444431811737
Na 9.178034704265068 12.614415605939222 15.056071980756201
Na 11.721107509446593 16.63592937659149 17.43791008669774
Na 8.102190059415465 18.32599652599616 11.752214794799299
Na 11.843552893443974 9.864872112000175 15.779133181321232
Na 15.351802189336501 11.710025341225494 17.826318024803275
Na 14.391892499971862 14.709197243394767 19.77869726230655
Na 9.046244540603356 14.675227543086677 11.753820950029649
Na 10.501755198380573 19.89731705872248 13.979136964371317
Na 11.78843014817026 14.62852590893133 14.171991839424182
Na 13.649292802073056 17.950205382231935 14.714041939710192
Na 14.082402241680816 11.904198072694332 14.318475288141432
Na 17.750364143989906 12.653129920702533 20.555227190057245
Na 11.31634244920053 11.65971395884322 12.243654966491912
Na 11.519913298961429 17.335109588399067 12.03653670469918
Na 13.766424600860137 20.48621512918343 12.297205561455762
Na 17.438579125424358 16.514404336601814 20.88088670582896
Na 9.990770996578343 17.039858727563693 8.9430848891453
Na 17.46545604037779 14.744830628020182 17.88159400136341
Na 10.82123614387507 20.249787652918876 10.224614814720141
Na 13.699325710653435 17.94296378071745 9.473839084757453
Na 13.74666922075169 8.863023933673256 12.607560823595904
Na 14.925901949474483 15.07952399816434 12.558824201834051
Na 16.417595333754488 20.159449586874587 15.105933460655013
Na 15.318813216076864 17.87667308937813 18.02454907209183
Na 12.42654204830175 14.474632430895388 10.150501646554467
Na 20.49515284227182 15.028310259573063 19.44007245676528
Na 17.82509363928084 9.381095545382278 18.694162695500548
Na 15.675307795234088 8.981457359083445 15.671140709903279
Na 17.020106808068554 16.66071670153719 14.984640883245257
Na 16.54099000563934 18.25160888869312 11.802185007005447
Na 14.875848313205168 11.872173847221552 10.7922933691441
Na 16.246365213921806 15.222729746317812 9.382573696963094
Na 17.33556236059323 12.826223898183711 14.645999716706363
Na 18.922000228673184 18.058499433745162 17.684109894063276
Na 20.20820729447987 15.184291680488426 15.639689286619232
Na 19.61462289827146 18.536379646742265 14.090446218869856
Na 18.781694796396287 15.267693838487357 12.2494562735894
Na 18.325590610210515 12.354687413282228 10.423981367794788
Na 19.798249051305884 12.033107381160756 17.39114130064845
Na 19.251368451583026 9.181150393904952 15.407614895814554
Na 17.308047360010008 9.645617696701658 12.397168569393612
Na 20.367815423011645 12.019364603605007 13.51953623573305
