40
Energy = -42.96254818 eV
Na 12.018425377605798 13.915290205816342 6.120991829870025
Na 10.17452249682712 10.844113845945461 7.136761753371692
Na 8.682056781929369 14.264102798080664 7.695071943313062
Na 13.938092235471949 11.152364490488507 7.820477570939181
Na 11.443293959986354 16.820451180992993 8.51126534464471
Na 14.67977159095812 14.94163613428701 8.686610432630173
Na 11.355723585684997 13.295906722309118 9.289267658295948
Na 17.24993833032968 12.154486210161817 9.944734958533028
Na 14.98246963286206 18.17778545560613 10.974546970412742
Na 8.296572704525724 11.560609418430436 10.377863001693944
Na 11.56499397373252 9.467223282108671 10.269164445124291
Na 13.999800525991192 12.342004324461438 10.99277356836531
Na 8.96057248428614 15.35702504746661 11.39424089548148
Na 15.20063057101539 8.927708202315241 10.880920071994568
Na 12.605880521367622 15.793743341739628 11.605684415528993
Na 16.165954008220144 15.051767457022557 11.996446374775761
Na 10.83480847784843 12.547003868179385 12.436338663125996
Na 18.676193297705897 9.73341450774416 12.43577342099208
Na 12.727351421834907 6.744768530611071 12.850000790456104
Na 19.1190637118569 13.53492966045492 13.19452659033279
Na 16.172086086871012 11.607251031160342 13.396215773367148
Na 13.693064287001027 13.665035438708982 14.215109630846845
Na 7.900040653238644 12.906097623950037 14.226595248122864
Na 15.704291004275282 8.084590472980384 14.582132118591788
Na 17.67607771020255 17.519906714795304 13.7885944867325
Na 10.844376795276414 15.432924526747263 14.543620989360223
Na 14.160995303783553 17.197116091728194 14.75434115428193
Na 7.893065798356444 16.710034845143852 15.026862968363984
Na 11.09367517482088 11.929190075783291 15.684397612495943
Na 9.47914604994168 9.382708933007166 13.518498478794516
Na 16.661355134176656 14.5128840711642 15.77600300953705
Na 18.175875225429415 10.943500859040608 15.867047802404874
Na 13.037845129522529 10.045307287518963 13.492399698860464
Na 8.428092952210337 10.325721259975973 16.981457533730875
Na 10.861990100067095 17.64244836198692 17.11684057995297
Na 13.002863410880122 14.661335166902374 17.475085492422807
Na 9.243377332683652 14.2322735567049 17.567109780817816
Na 11.850040831309803 8.44751479522397 16.32151929277135
Na 11.405535151133433 11.390701322459046 18.843962794571038
Na 14.519641307177912 11.216674009195204 16.688295982489898
