41
Energy = -43.99230365 eV
Na 12.51687602454629 16.473441194372146 6.534307875312134
Na 11.510043346851852 16.93379244068505 9.910819946329047
Na 10.665291679595056 13.630286611793064 8.137045521688488
Na 17.17011202692862 11.58181761237997 8.90817376862313
Na 14.882213805921053 17.947538771495893 9.009525549871325
Na 14.435986702108677 14.297746442788762 8.493047983428355
Na 13.379577686599339 10.891976990732422 9.274940106608312
Na 15.418859854790222 12.729809116875263 11.496748182415788
Na 17.658714975325044 15.163738906042699 10.372215571066112
Na 16.1252299499183 9.287486710250707 11.854020158917402
Na 8.738822175669917 14.780173300717788 11.332915423382142
Na 11.172458038323827 16.48348317341835 13.457250203690824
Na 13.304444199669069 19.346962532653894 12.72101174004178
Na 16.918832147220265 18.412116939929952 13.0679262830678
Na 12.809371797117183 10.568496972008228 12.836699464871856
Na 12.038268098712523 13.66734512715885 11.197274075350563
Na 18.14936707872714 9.079944597075425 15.07276390082566
Na 14.511169248402215 16.143220682654864 11.773878920198669
Na 18.763621704637355 11.872653866758395 12.441988503833352
Na 9.735269738119886 11.123496962401664 11.041962610055911
Na 10.06181031485027 12.951676628834806 14.192370975094647
Na 13.574072733725039 13.983393216225533 14.186593938293552
Na 17.243318234172218 14.908901635049629 13.96951163087853
Na 10.379012008612113 9.473436897066524 15.239779470573273
Na 15.940721969128035 11.53755806275095 14.665510063075148
Na 8.615894927931377 15.836916798805275 15.726896815348992
Na 14.319006222817437 8.467054186869506 15.346733331904854
Na 14.406802099032216 17.027797845698874 15.179337842097297
Na 11.567356087804725 18.750058896948826 16.223769071782748
Na 15.15559794350629 20.157182153325206 16.027708202297507
Na 12.841297594810104 11.668990873316364 16.321639469625076
Na 11.823168864711612 15.195005537511715 17.03513657745732
Na 18.742162395602318 12.651260023297436 16.29119325851429
Na 9.684314032471429 12.321414535685406 17.737107146131898
Na 17.518895413987128 17.274360826542235 16.66526030590951
Na 15.536882934886581 14.214137683894153 17.228005307120732
Na 12.084058674304439 9.280657619132013 18.529781346592795
Na 15.867448668799174 10.539920604518821 18.006305948288844
Na 14.265718556487387 17.436594964025428 18.572231567539994
Na 13.025601974644909 12.850211644562735 19.55670882233125
Na 14.258612851646875 9.874225196861106 21.180187902678238
