45
Energy = -48.47946815 eV
Na 13.300863778779325 13.062448687066395 12.71796773377514
Na 9.584816626403178 9.244478688494222 9.292766224268293
Na 12.519007823036581 18.17529569908688 16.291993311986857
Na 14.328274651223378 18.21325039071418 10.567028606747614
Na 18.519588282818052 11.849476040770535 8.49964492045387
Na 15.998812378274515 8.865767552697964 15.359198220781625
Na 13.028499360820668 14.821420889949037 9.50635192594738
Na 7.551826687040169 11.372412455030652 11.098688430393295
Na 9.44247202784739 17.19806774695073 14.831650391568072
Na 10.058851610135806 11.838460499272179 17.878423093392843
Na 13.275808288325141 9.186370724009608 18.27083871846587
Na 10.950087444524172 10.441313496119704 12.79188955059798
Na 10.623156679679953 13.742515589635222 14.9134866666588
Na 18.090984959432816 9.99228906711497 11.674385478562876
Na 8.784055214149042 7.987271628135866 12.753674453419483
Na 15.877849274816331 12.461033387003537 10.44898666333816
Na 10.237266467327805 13.654991868683178 11.326660461095374
Na 8.028488985986488 11.291214807413468 14.680921784348548
Na 11.761621096705726 19.68553749831096 13.129433351268938
Na 10.16147415481699 8.838965783769652 16.07177527098799
Na 16.538721966303306 12.448933602254035 14.08387627246829
Na 17.946352234247854 17.805586568626072 11.505872524378548
Na 14.259345778175932 14.836556841565296 15.888951052795708
Na 16.80460313227479 15.477763677863942 8.844648782552598
Na 7.673735497043765 14.378969163830034 16.738595177459285
Na 14.519205087933523 9.884445217157378 12.416284956058144
Na 9.898516624581752 12.676614358400773 8.006992562101374
Na 15.292836808320164 18.498015108710568 13.99463655454954
Na 12.416075357758563 16.363495117235423 13.155592536920874
Na 12.458229747703431 7.553090031469864 10.816240434691128
Na 10.904836049021512 15.46621435129641 17.955738332788673
Na 12.826719221625979 7.479753135586159 14.364989815974853
Na 18.88318845714894 13.995076341619235 11.482955137354931
Na 15.792757535190965 6.809031006570696 12.14286695526356
Na 13.135117051627578 12.904159435942077 19.070770214828727
Na 13.090635039918377 11.223205310090645 15.642961658182392
Na 7.389324088239034 14.740467135616678 9.534061457315893
Na 7.405699536181663 14.593022395317627 13.139847558493301
Na 17.849320029274 15.867178092896435 14.739404267638403
Na 9.881911766426148 17.189084406651624 11.00364175861712
Na 15.653281852853892 15.464100719966993 12.204966261238955
Na 16.090694228060737 11.931229447509194 17.546081520988857
Na 15.067818700759203 12.466525339613131 7.160186001944884
Na 12.629952031718759 11.136816885759648 9.602426614608644
Na 15.719177084985844 9.139944507739626 9.103507032244993
