41
Energy = -43.16386215 eV
Na 14.80815695071317 21.810825694462455 10.66586625001424
Na 16.219827884520946 18.711332429033266 10.567298118914477
Na 13.369854760440747 18.829208290169774 8.345458123603924
Na 15.713609570192654 19.639871509397565 13.88340486413473
Na 17.831534221337865 16.451569315176897 12.781709691012587
Na 20.29065237976706 15.606625180582487 15.571842734915647
Na 21.840157951465294 12.673367100453136 16.658416230087816
Na 17.878313361887155 18.029844107631064 16.18099146305794
Na 12.767010712067842 19.324580096107276 11.788597099615146
Na 15.187194153388498 15.617670624746088 9.257786411909796
Na 14.987512002925836 19.82452014546551 17.500008522883405
Na 16.207598022347156 13.149667568297755 12.008579901477418
Na 19.021535823919876 14.555471591698879 18.731952639849943
Na 19.361740094894703 12.53329292049671 13.915740265099197
Na 14.328294288221846 16.210771499599648 12.517578068944239
Na 16.89028325868344 14.525289468707713 15.462431125065217
Na 12.392931476091421 20.30858587136913 15.116676262768525
Na 16.1426288335062 16.7591450572921 18.92700973871594
Na 12.10079850512765 15.549917781487359 7.125594167366817
Na 18.789610604055756 11.24340354159101 17.184123592566475
Na 16.32976557832171 14.417265218500306 21.48938607357014
Na 12.967569029510285 13.065467447450974 10.42266574832057
Na 15.87416306638421 12.975055942745342 18.22444576391565
Na 14.229567762460006 16.763717751533527 15.894496996616335
Na 16.14546455600233 10.832670218105987 14.933717892212318
Na 11.43152816351084 16.371449676654432 10.3550942587468
Na 13.456646117243016 13.369042358002703 14.426859971511618
Na 9.83389484615365 13.489369832503641 8.899269777319079
Na 13.732751966878022 10.213858227780387 12.34335093109322
Na 17.824169777433518 11.359598775588982 20.73048832612568
Na 11.094201896064462 17.028193268626843 14.006935913408668
Na 14.242508953057397 11.531883856688008 20.896358788856517
Na 10.17159630582623 13.733002356006828 12.644518785344932
Na 11.427258673013025 17.77583139594326 17.53021255340643
Na 15.707160639445265 9.399692021767544 18.344994357943868
Na 13.126057878597429 14.83079234628484 19.031141967748194
Na 10.440865511775417 10.48395019301193 11.090270628773677
Na 12.80865411606245 11.394576325262946 17.478574105176655
Na 10.701260035531584 14.324820429859678 16.295805802122207
Na 13.541193974528609 8.530907925423666 15.461040164728583
Na 10.797337501998154 10.834694910048514 14.559617732662613
