40
Energy = -43.26719298 eV
Na 13.174740272225488 10.736844557662947 6.992130951021295
Na 10.266444950373 8.497741590489799 7.177249986562951
Na 9.699659920181784 12.46168309578061 7.446639644652401
Na 12.745780533887235 13.785276663856493 9.147929434891939
Na 16.229042115036233 12.387847512054638 7.780696037013043
Na 13.669176649017649 7.806743172671507 9.155970256624393
Na 13.394591078757738 17.306989776417115 10.409077739722049
Na 9.810164183757465 16.05237762606947 9.281453945471334
Na 11.269746323565155 10.315133313086163 9.833074166440092
Na 10.180458826093814 7.123018273632493 10.731802963905196
Na 16.249780259587233 15.428335980253738 9.35998868582366
Na 17.208305451699793 9.250862997570252 8.920019440056313
Na 6.5264470272983575 13.816839439419274 9.32699058550956
Na 7.700766595062449 10.148166851618171 9.556234011961825
Na 9.352225464096147 12.959483183716666 10.915837666138065
Na 12.172069045661068 12.06051991696026 12.5689800232227
Na 16.383027613782204 8.404359556191613 12.329133555486733
Na 11.367574590857009 15.318951012743417 12.40159214460976
Na 14.655696812337371 10.994450727011458 10.498115268661373
Na 10.505832498815886 18.57609800282461 12.337529595785462
Na 12.860306246949706 8.560116856717976 12.643511152965333
Na 9.313674691895047 9.847570076004386 12.906532011905847
Na 17.233435359467048 16.596829074680674 12.514298452862146
Na 7.832086961285094 15.754502611023204 12.412858906901429
Na 6.471170562561577 12.088345844146382 12.697875264087356
Na 15.24056562689904 11.206389098886056 14.147009621931842
Na 9.377505605579342 13.158852090802547 14.601971161937891
Na 13.821019792700383 17.283711951048133 14.054097162842556
Na 17.636310814738998 12.521683108983659 11.46133709068631
Na 14.70324568916452 14.284325629337717 12.20780877781986
Na 10.675701009499125 7.303590224926725 15.171511828839774
Na 11.857872866145588 10.577612197330131 15.472661038879037
Na 8.498013299446342 10.168053469832948 16.38423885977999
Na 10.352692874292382 16.48529035543551 15.537019554311614
Na 14.349935135986787 8.151022188639878 15.928503101557888
Na 16.51174048794146 14.311326070690658 15.282763422665413
Na 12.970489479951915 14.021336646026258 15.45550313330183
Na 14.414320783777418 11.546612650167049 17.673984633119282
Na 10.780965606377661 12.770487568414689 17.964875325759188
Na 11.660448556515808 9.053650700142175 18.43422505755306
