40
Energy = -42.82710135 eV
Na 14.511679941784097 11.17977280124014 6.99908746945075
Na 11.2928263211764 12.53814287166703 6.648110702808744
Na 14.130894796058723 14.7672700001185 7.9389977491950745
Na 11.699383560108515 9.168549068879898 8.37053630833637
Na 16.454016455174163 12.552666054353155 9.975100111058312
Na 12.598619297610774 12.018809481962098 9.7543807285822
Na 14.939703571252968 9.162350367932255 10.385081759954396
Na 10.65048960707751 15.084006724234264 9.497136268967996
Na 9.171554330878749 11.527231309371682 9.54370278677401
Na 16.647839974890907 16.508501715965316 10.45668643731763
Na 13.187155356894191 18.089738870781552 10.444618902255064
Na 13.668707961358118 14.767462942962128 11.297167953512957
Na 11.397128261701925 9.451198508330979 12.09206208324763
Na 17.50788807345489 10.383032512782007 13.021818156185176
Na 14.118971151139506 11.526455254957451 12.677892263280123
Na 16.047149741276577 19.883571210593285 12.25823740748463
Na 10.478513683580971 12.971259399809275 12.645970953754844
Na 16.85500372198316 14.046247025544789 13.147033265815296
Na 10.908403095299297 16.613537447352428 13.091594455136168
Na 14.74970161951118 17.062620401356345 13.52464315397606
Na 12.546928542158357 19.70149393496523 14.080715483234393
Na 13.160222963690455 14.191266245128352 14.556616887191488
Na 15.511333573139424 11.850565009261643 15.73106793647352
Na 17.492301722006456 9.393575877875838 16.813874016476696
Na 15.750109923716998 19.123242763965486 15.939116865314544
Na 11.667918564317274 10.978114708305093 15.442988856651338
Na 16.262569200306533 15.424916049780672 16.473820999628547
Na 12.89317313500414 17.059874606201376 16.718495189083626
Na 10.058526818105626 14.439139875449166 16.087779057373396
Na 9.699240610130758 18.12237288590808 16.168828369806253
Na 18.20354642633624 17.305552344516325 13.875635654792454
Na 18.799770875316586 12.761004461614395 15.900789071564937
Na 14.467567383049275 8.615633086101978 14.545345573001608
Na 13.249472776433777 13.512517519092386 17.816644397332304
Na 14.709837667690735 15.879333332935559 19.848150039372953
Na 10.562049252800584 11.800651630043664 18.916679885059256
Na 10.90286378618252 15.510770579671298 19.438323149419436
Na 16.471111289169468 12.586072492966787 18.960886340653477
Na 13.93580723522438 10.033166963395614 18.329412098026918
Na 13.230025233318214 12.998319162937483 21.17497871275868
