48
Energy = -51.6796932 eV
Na 11.177579425726769 17.293838606589908 14.991981411896651
Na 16.872646455933133 14.0640450507199 11.304289093453216
Na 13.159549405798284 6.341492930568589 13.947365087362217
Na 8.411123861162944 12.798687026215957 12.297776675469411
Na 13.06208483800874 9.844372110354643 14.212156188738437
Na 16.46186840079213 16.69236952440621 17.917784518060373
Na 14.397475666681943 14.559274404830736 8.738657434174405
Na 14.957312090175785 19.357690263525395 9.141468925550704
Na 11.990665890110805 8.239908092046338 17.165129997650524
Na 13.013802893756132 11.985565502575303 16.905398289564495
Na 10.729219733315183 11.089455298013421 19.172038925250835
Na 15.442211247500591 21.062404154489073 12.66999578648404
Na 19.348913849006042 13.134113860254848 13.746403632240316
Na 12.71238777983642 10.850336568508075 8.407553352844255
Na 19.472831316949524 14.607280639012414 17.00949637774797
Na 17.46923006408631 10.48781264627863 12.08394605475939
Na 16.209226226843352 11.364794146683279 8.837337564720384
Na 12.500024542244443 20.91433873639186 15.065324589539532
Na 15.629670687416114 12.313605603253464 14.484795893315997
Na 13.878815475694507 15.075874018290587 15.963389188542907
Na 9.875661247713056 16.24246835244027 11.910199210660178
Na 16.466614735092172 13.074764167796582 17.826025144366362
Na 14.383669816560577 8.632589921131078 11.081933736630681
Na 16.197302632628674 8.122772609745518 14.297776065930384
Na 15.315196951411375 9.621924290584168 17.477836194972205
Na 17.00688988376771 15.57333982904958 14.586582553448133
Na 18.499204671574482 10.650103831014533 16.050865355529904
Na 7.618559703121578 12.49629972871677 17.67551821596828
Na 12.521065675084426 19.013589320171718 12.005468995186202
Na 17.59648535000006 16.722347407836416 8.830267187969142
Na 11.063973430007167 13.63670748279551 9.912594702181925
Na 14.682621419180194 18.33156540150861 14.995364902837057
Na 19.466781809215817 16.620070577383427 12.022505776739232
Na 13.584022747960365 14.326886806404085 19.55169811304059
Na 9.859195201679167 7.818998513155648 14.240162326537902
Na 12.777295566153219 17.728787732695015 18.138169200157215
Na 11.54448612708198 13.453280249119432 13.844889943644914
Na 16.071727675094458 17.63301282996862 11.810649329179773
Na 11.994634270239064 17.11537653283429 9.068731516293687
Na 13.95147295197106 12.109092536174979 11.464242039725875
Na 10.860759803244326 10.305137583183265 11.584936770937214
Na 10.625338832745728 14.599441052429876 17.55773966420996
Na 18.32162281561638 19.86799711577739 10.71843311858158
Na 8.240059647640996 15.0252193736102 15.07450278035849
Na 8.427851453743077 8.86539261734048 17.58506655320029
Na 13.538745185031258 15.571215980316918 12.24493166089166
Na 9.776328183944159 11.095415996573061 15.381144228119933
Na 18.203839400269622 19.036990016044456 14.36752276414668
