44
Energy = -47.48500428 eV
Na 14.66706020164684 9.64907492762085 7.072102648903409
Na 18.254593687987974 10.083981701076388 7.472675903193521
Na 12.454947584340125 13.086979257701092 6.857763032276896
Na 16.25350467154374 12.881109226637474 8.12465654735129
Na 10.496218715970375 9.981808593260965 8.412350844592783
Na 10.666812394809453 16.67445226471349 8.596847714989309
Na 13.411529192682078 11.411803064217942 9.683777296893341
Na 13.747312608325636 15.142517953062134 9.602630522168592
Na 19.09788677851817 12.134474060663582 10.35797357707033
Na 16.436353805970338 9.44579818947382 10.390547235974672
Na 10.234597004771711 13.438067549824446 9.763206727538787
Na 17.213801233670797 15.980586425791637 10.733245498868603
Na 12.897342150108242 7.922659130833522 10.55937434443349
Na 14.094228991693264 18.453087360458852 11.143737430866425
Na 16.03593640818922 12.860098563977594 11.66897144930285
Na 8.98102050398558 8.055671869255736 11.358958325769981
Na 7.431958489429669 11.567434309219376 11.31224666832565
Na 10.800023691624471 10.599812777689632 11.92454906764103
Na 7.730117211369032 15.575524326859158 11.35082145236844
Na 12.646797296631922 13.322555242774355 12.39693701355642
Na 14.151575737285826 10.17952380970605 12.966289928197027
Na 11.172976333426364 16.496530697928588 12.119018627783925
Na 9.42360784220161 13.477197228297673 13.467138675672874
Na 6.380192492321053 13.89166245140871 14.874367655901388
Na 15.42142597900516 7.16246688111765 13.518663238121471
Na 8.974882488904367 16.634457192771976 15.04855302868095
Na 14.938515538179809 12.820035902248653 15.072449302277644
Na 16.642529542251705 18.17296487315424 13.87138464355623
Na 12.061537667300346 14.929341020976063 15.468632127891668
Na 7.153451538792438 15.730897166474202 17.907918773471845
Na 17.930448361623647 14.475438888659314 14.25409215834948
Na 14.655893457658388 15.751756993918956 13.185526544743166
Na 17.515170445217613 10.585203639942184 14.075813167332061
Na 11.743682849748186 7.953894515145843 14.35349437487394
Na 11.776100899040776 11.405482874372359 15.23884101241835
Na 8.503214743814945 10.190318668991596 14.720912411097757
Na 12.866752263599864 18.25939960989399 14.947839670528246
Na 14.594280740978348 9.528049163953517 16.504440257842628
Na 10.742884880810548 16.40451591023479 18.245452697339093
Na 17.115063379633995 12.489210846168428 17.537017673657044
Na 9.32668638076576 13.097778505348135 17.11139724736482
Na 15.276056126744452 15.853689826930541 16.799248997782463
Na 13.19990674259697 12.818547775863475 18.177462517263066
Na 10.940668784676761 9.48368660122897 17.81021980561426
