42
Energy = -43.76689693 eV
Na 13.776721442733747 16.48156968631287 8.917058219425778
Na 12.635854990250921 13.358478897829054 10.28626774147048
Na 12.046552924888772 16.9009201622614 11.780885746549856
Na 15.559741832818228 13.500274853820404 8.348590784704577
Na 15.30888236010557 18.666036370453405 11.324652514466163
Na 11.144112585735842 10.894402702143132 12.004093361098162
Na 10.773395316717034 14.114688664640607 13.379901155652016
Na 10.105126403424357 17.276500364957954 14.644957956964985
Na 17.200078090405135 16.55457160980364 9.006448995915802
Na 16.977663932320446 12.359310795042665 11.255256173589252
Na 16.11494401817947 20.938662719368946 13.895624186867172
Na 15.156770404603614 15.18277697383935 11.86202003049784
Na 8.472697711753854 14.54939970699673 16.13639326221953
Na 9.131317249883843 11.299558529189039 14.998716483228774
Na 18.552294617051942 15.772189117760469 12.010906316565485
Na 10.128914688074182 8.163795272642053 13.773412733517578
Na 13.389200607592368 15.566736671865707 15.325403534496788
Na 16.264902628839597 17.36584125083463 14.500656958795588
Na 13.831789999905773 12.40717212978162 13.640223033699122
Na 13.169558159726163 19.02082936785844 14.276848981756546
Na 13.650385564885722 8.842942345527737 13.358869827256253
Na 10.917237829153539 19.63533837323117 17.02306220648408
Na 10.79515237907873 16.257943781314797 18.101424870931663
Na 19.142919829221388 19.316482305401113 14.657326247555863
Na 13.80905229445621 17.979909286731225 17.851692256525336
Na 11.53368763869695 13.040287154054882 16.908234139876356
Na 19.628477431097274 12.796989250513487 13.37263835112121
Na 16.69349860525663 19.704394918113746 17.350764494085016
Na 11.89582859728015 9.65813612544233 16.400957170805214
Na 19.515355760365225 15.808567572127092 15.347360962867807
Na 16.609405728865998 13.90956964985639 14.950542990335391
Na 13.890155134729575 21.54638261709618 16.675987842473535
Na 16.765800906519658 10.453426200372908 14.26081998342204
Na 19.612707381387143 18.13842334582371 17.99442571218255
Na 16.67618182767763 16.155009484930932 17.789759428630184
Na 13.757362191882294 14.639189726901252 18.99185241131481
Na 14.62979695797728 11.68486457729027 17.046109585541732
Na 19.488172572347747 12.351673252140511 16.686517149461253
Na 15.022705208743432 8.111643937106166 16.48592967434971
Na 19.811044821536377 14.921083526184747 18.912481443475695
Na 16.875172206550836 13.061867680507284 19.282496152089173
Na 17.518081522783753 9.897668944466188 17.918252958207116
