42
Energy = -43.81422118 eV
Na 10.240746321027327 20.35676480323685 14.239119413434578
Na 11.342633212772185 17.267940795147872 18.62544398274164
Na 9.019962724927847 17.678228702131662 16.10172132961079
Na 13.129355028352133 14.39394840779083 19.06418509846242
Na 15.357541059506023 12.848875441470307 21.223950866869078
Na 10.504875483135173 14.501131832478203 16.688371576167036
Na 8.115331996504002 14.819642382945768 14.16634067570851
Na 11.848904241218742 11.370600779217995 17.165651040978478
Na 12.394192042881823 19.98777897146934 16.916125332936456
Na 12.159079887102232 19.630072485167222 11.47610544714699
Na 15.978749241190663 20.517451518772333 17.295538799612853
Na 16.613840291105927 15.606056851490877 19.73088346690295
Na 9.376599910073748 11.688871296492179 14.720580071387323
Na 14.752482979892513 17.177396460355403 17.06468798832216
Na 12.15473552518852 17.09754452419763 14.687530635187311
Na 9.597636569603486 17.2918577640999 12.227306275854854
Na 15.153076992397219 11.774403121994396 17.894313891291596
Na 13.742432254326864 13.931777765587954 15.357261524941261
Na 11.233266247873622 14.085753560082367 12.916136924831054
Na 12.516508342319122 10.778783302812814 13.592603108695775
Na 18.126384528852004 17.817255907779167 17.746104552985447
Na 16.94186490802883 14.467052190936979 16.297827570378605
Na 14.530651457399335 19.651437526508207 14.199826955998612
Na 13.077275178301543 16.33807340364254 11.093966669106345
Na 14.145445331058188 8.85605945826003 16.208534919319966
Na 17.72277325933569 9.435917409886262 16.735510578325677
Na 17.858635535221406 19.110668886120738 14.596926236082604
Na 15.88683145009192 16.335488202708685 13.519722105667359
Na 18.221914022787153 12.308994629796826 19.11199681359902
Na 14.36061178395403 13.137082604398659 11.775222690769805
Na 20.166706703719115 14.943270935778846 18.028436010354415
Na 15.570937230101908 18.830241215718296 10.99749208716905
Na 15.866231144736743 11.161326609053908 14.301389821753403
Na 19.639443463277104 12.173122716289715 15.857884650224825
Na 18.716668506084535 17.854685975496185 11.595845327032155
Na 16.36680662152654 15.395359940774936 10.025882573945946
Na 19.59136305413761 15.95090950242891 14.487421488080598
Na 17.70994955478228 13.431828072842388 12.674118659725377
Na 22.394802881566765 14.153793620595236 15.625011207653984
Na 18.90310650970343 10.080941393873209 13.196187986396419
Na 19.84809590448348 14.93782103788226 10.431458103262914
Na 21.158508495013972 12.788139393296362 12.701326689172637
