46
Energy = -48.47264851 eV
Na 18.865958922573512 17.805432696162555 15.965001592794795
Na 20.123990506834275 14.329444749653607 16.560501629988625
Na 16.047962462328083 18.467405105423847 18.02085219958957
Na 18.456592923208824 15.997237053543389 19.02650128420238
Na 19.737797436420784 14.910129043294848 13.348527522421346
Na 18.58772699926517 18.273393922573185 12.628331774583659
Na 19.29272259913043 15.957885695789406 10.162379288327859
Na 16.060649213957277 17.13415109580209 21.42851293658027
Na 15.603053059523816 19.156483741854974 11.183360252536328
Na 16.912581986484113 13.647238207965396 21.351015795885555
Na 12.885216930757359 19.236963286833916 16.624152016772996
Na 15.543260366450019 18.046417275814427 14.49853917822149
Na 17.612277545252333 12.491451729597475 18.11082792558696
Na 16.736149283668617 15.035773265949864 15.558775012582382
Na 18.539296114746882 12.524928110024408 11.083306557210994
Na 14.578529908019123 16.88447655550756 8.873017494351615
Na 12.81737725281053 19.93993700968771 13.231540764000384
Na 18.06962347229391 11.901513336245255 14.683658947921803
Na 13.026154792198561 17.699826739050145 19.82497549904235
Na 16.30759812523657 15.363194131734335 11.991168894207863
Na 15.082809657883162 15.0578868643404 18.6593517452621
Na 16.850682617411852 14.35235332528775 8.451258451932118
Na 13.548576354942044 14.446289154429167 21.715302186283527
Na 14.600629720358432 12.294018056384422 15.9102113854446
Na 13.188104428167815 15.702395249498634 15.787231533945855
Na 15.400195908509152 11.775662379175166 12.490123076100561
Na 16.030163880466375 10.980211590480016 9.158390298914226
Na 14.489156101917994 11.657010189007833 19.510787239302687
Na 10.372877050020968 16.94822321145064 17.798623962521578
Na 11.217881181054098 16.05173785646331 9.194316076508812
Na 11.715123834657618 13.9263521847412 18.791230478502538
Na 16.072641445037725 8.94831435109072 14.630829768621323
Na 13.07859481041284 16.55481040981585 12.252684110502026
Na 10.090750486853166 17.832094459155105 14.644503778035725
Na 12.514975674295584 13.301133565217654 13.27717300263147
Na 13.755829546615704 13.709560802157283 9.906188316727064
Na 13.782231512003243 9.11162219266898 17.213491985408236
Na 15.017741243536893 8.3587491202999 11.377903447250244
Na 10.238745225697677 18.514979671896448 11.359621766129315
Na 9.909785398653609 14.222921266357544 15.683748425903996
Na 11.173572952320463 11.181449156774173 16.65200312308237
Na 10.17929606190041 12.78984230765269 9.978379515086447
Na 12.669826837316938 9.690529348416792 13.807246139750541
Na 9.606742306087705 15.164760546544906 12.34088191000238
Na 12.6253311292486 10.517800333034 10.323062843115716
Na 9.511719413225691 11.59635633315363 13.326867854514184
