49
Energy = -52.73946509 eV
Na 15.936263742037676 8.304795289610812 13.527141985369305
Na 19.29890004290049 12.715226792977667 16.68820787973339
Na 16.27926550161427 10.472991914943648 16.592935297217064
Na 16.331495304081944 13.201731762184517 18.957728018982404
Na 18.70243777642356 10.74548833563723 13.545318583720842
Na 13.200986203624499 11.044831777022637 18.76069557085006
Na 13.310665284050723 8.304826114236254 16.338772354349494
Na 19.07044559738578 15.387442428462402 19.57122780782334
Na 19.16968143098206 18.23680116243062 21.8262135247588
Na 17.622519127483738 8.877059216926824 10.401444887474714
Na 16.136645457611472 16.326417531609597 21.700676885226738
Na 18.694281403095122 16.160023388723214 16.048774261519576
Na 19.351634558874725 14.296509642491294 12.873319947699942
Na 13.166123942474869 14.643790983219567 20.258229804854633
Na 13.684855653150038 9.374941679286602 10.6509892300133
Na 15.993580689747205 11.63401409389037 11.651839655809466
Na 19.82497424185073 18.611348806045537 18.39592748993404
Na 16.512108153073946 13.603090983591333 14.748293872102224
Na 13.582793989912513 13.632516247902796 16.6714226658446
Na 18.74193954481722 12.422552617483053 9.69106100308881
Na 10.828353190192079 11.12694550352168 15.962969060167524
Na 13.751770847711192 10.881330550778321 14.175363598753226
Na 15.792532255443506 16.61172741910482 18.316937126019702
Na 16.56593538985245 19.630805802227435 19.855989081574315
Na 15.844321829441148 10.862657800230764 8.060326329044983
Na 13.210443145293409 18.334730437068178 20.483518129248992
Na 17.546581375883907 17.620805813241958 12.949538917454682
Na 17.164613456965597 19.42751501409499 16.125713977509434
Na 13.77276593144722 19.75485661971591 17.08768091040002
Na 16.203941673442245 14.97134802265523 11.076448280854837
Na 10.990219337576244 11.889450537331227 12.121084207202781
Na 10.468479932481864 14.620118619532018 14.779045701100744
Na 12.042920722253015 16.64806256544375 17.502762539260775
Na 10.200626222883377 13.676051701546788 18.4044347346296
Na 13.434730076210393 14.045125603345156 13.055844752397679
Na 19.01311317597742 16.170397604809846 9.647436543598673
Na 15.980920635193154 18.591022352921986 9.854967829653763
Na 10.01643036405994 16.686021753546168 20.39487800382438
Na 14.766246667155592 16.790889898732807 15.130946556995442
Na 16.359977204299177 14.389957351585675 7.692962723198794
Na 14.623323177237902 20.087915095689493 13.43379636191828
Na 13.331993971824392 12.976325828000485 9.584862403150545
Na 10.392980765053286 19.576298689258724 18.199441810306215
Na 10.777324022485669 15.715221922845481 11.266918167030203
Na 13.378222488886419 16.416889537513725 8.662109958846614
Na 8.556884793353918 16.70814633325898 16.89532161925878
Na 13.78200160870896 17.170141545172363 12.006404033321774
Na 11.28257591634072 18.278716775743643 14.422677871760216
Na 11.971958133569403 19.426924569672874 10.568464734946913
