45
Energy = -48.54338251 eV
Na 12.64747608864187 8.632258110128653 16.445970025090034
Na 8.330564975123584 9.328937476239627 11.804328506081518
Na 14.835034788927695 13.812848330757014 14.54509868174861
Na 11.977277501212825 12.020491958475326 15.522463304595961
Na 10.3149966875634 15.352425448226576 11.20578355480176
Na 10.49663100900831 11.840138827897361 6.659829709728575
Na 11.311317312122487 10.591431502116064 9.739992361739041
Na 12.502464959464344 14.165044632082328 8.78319817252076
Na 8.570898839856723 16.72456967936723 14.05666365767597
Na 19.238644758541838 12.68055500777491 11.286820288457225
Na 12.46178237665646 12.729623540322484 12.048123261057944
Na 11.487980019557664 9.55321821794542 13.06857795015501
Na 16.655353600805018 8.458107818035057 15.748164517091288
Na 17.51981679009386 9.257842735791955 12.243781617017362
Na 12.226180608438407 8.309752994544507 7.288761855851461
Na 8.457524311079293 12.419397557139309 9.559088928833441
Na 14.102694699024303 15.892146080338252 11.610079995755365
Na 14.604924673578303 17.704353072759915 18.599232964579137
Na 13.102430303165855 14.652383295540831 17.765760636592727
Na 11.408224779999568 17.834318357167763 16.694261352785514
Na 8.672502979298875 18.439177893370506 10.718122374833932
Na 15.739278599493392 12.323997599525413 11.320769838463686
Na 9.1591485339544 9.96180568794186 15.843931541391774
Na 8.765967915504747 8.991424850335434 7.977815968471519
Na 11.601445485342554 18.474920338521144 12.961062674373881
Na 14.280968212291397 11.39337644805119 7.803898355819921
Na 14.668905733760393 10.358735339156759 13.893023738592456
Na 9.072261259960449 12.717662059853437 13.28439821868106
Na 11.89232588862055 17.746114377852685 9.199987984753886
Na 17.832140807837366 11.976682740817088 14.732933402432035
Na 11.417051529161823 11.293461252010074 18.775312572838622
Na 17.57339929879793 10.703978789753117 8.839962707376218
Na 10.040704837949889 6.744112020097843 14.1784567374221
Na 14.585198912675523 17.3200427984805 15.054633832756766
Na 6.903518385192815 15.371854344580877 10.893418751616084
Na 11.708038549722998 15.295113799424302 14.384912063264961
Na 15.079161787909538 11.485343304306346 17.363437393171445
Na 16.57274200479929 14.495246049072957 9.005879271294946
Na 14.000676227749103 6.968676570767527 13.377926944712403
Na 14.370536773017061 8.975902639016596 10.410858055361757
Na 17.488198398615506 15.332503920376249 12.941606421169919
Na 11.13526548587418 7.0905505115079785 10.508358225924594
Na 9.094333491730858 15.585468196890575 7.96116899996265
Na 16.707520090556798 15.046140955468315 17.15888203053626
Na 9.452555994591808 14.013929137441318 16.79932681988712
