41
Energy = -43.42245915 eV
Na 19.610885679265785 12.333331154975056 14.930595349656738
Na 17.501106711547735 13.542879649507537 17.554650761950047
Na 20.183898020389126 15.722958464116369 16.47564258669431
Na 18.80237371592912 16.121359923637055 19.901239369147774
Na 15.380425041206209 14.652554313162009 20.0633907132058
Na 18.054656281331496 9.45455591123945 13.871440148511704
Na 15.660767229751507 12.04369752612682 14.559155520157947
Na 14.356324979482176 12.006335408943507 17.754201000230744
Na 20.559857836686746 14.779789612773692 12.655487141053078
Na 20.554040676146652 11.156840866433699 11.727880269268455
Na 15.122980653175379 9.166039240086194 12.11022871713814
Na 15.58474462513118 18.1783228070145 20.317161838329653
Na 12.257036511268463 12.64203822622723 20.27792006584138
Na 17.475072754491013 15.125033163406354 14.390272451137996
Na 14.55908025842975 8.943012468156784 15.65948948979155
Na 14.156780815501937 15.33399276417644 16.19011709515807
Na 16.94521994561001 17.274829437938227 17.25431577646265
Na 11.496599147302788 10.211914801568664 17.220157978452374
Na 17.28737478656946 12.418614978330883 11.590999057926172
Na 12.534205259700213 16.405931870434213 19.235688151642297
Na 10.759427511523015 13.82474898822549 17.33955346035444
Na 19.43124970277365 13.936916353531757 9.392259073687924
Na 14.709070240195219 14.864213626222972 12.394880359811784
Na 12.24506377052769 12.897053624758428 14.403287304683989
Na 11.76132677372832 9.629522640047687 13.380190916869852
Na 13.875200094748443 19.068817939110932 17.066111344759992
Na 9.007523713161609 11.387408697204387 14.955143497880478
Na 13.52487322812173 12.015201822164398 10.93218277292228
Na 10.995508033772866 17.28415206106719 16.076534204885593
Na 15.633629599443998 14.534233382018867 9.021331652022516
Na 15.484743479618922 18.04595234907502 13.969497213606635
Na 11.676760549256596 16.24305686916879 12.824106917823038
Na 8.80941552739165 14.89000085198547 14.334656322872897
Na 17.649541175715477 16.617062493759263 11.153297317082062
Na 12.069052485297405 15.167496477057407 9.560554223669877
Na 10.04499958051451 12.686167778783012 11.660064413534085
Na 12.357102450194851 19.631864731721056 13.530399453601232
Na 8.85143755881124 18.465797074532247 13.24980091707718
Na 14.28609082239509 17.87793442832888 10.512667289446592
Na 8.705477961365194 15.91016976541837 10.737545767300492
Na 10.848987494378104 18.69464875966866 10.203081741034762
