45
Energy = -48.31843613 eV
Na 11.558430873362884 15.861948322741373 13.173178261785024
Na 10.00231202940157 10.339425835337783 8.557888283107394
Na 13.663897763485993 16.78070574984128 10.340524098750077
Na 7.507181831237538 8.687563670655859 10.897700243932313
Na 13.89476722393206 16.731181740592255 17.623803330113457
Na 15.864730201712996 10.563310030686042 7.130809985299451
Na 10.420330852067929 17.346642200090503 8.789342401114293
Na 12.680443270701167 15.585650395307967 6.884235533509328
Na 10.781065645515346 18.944198876033315 11.871674327701331
Na 11.31862539804415 8.869602606432892 15.248600718364289
Na 8.050588628283991 13.9883299685922 14.453916893006758
Na 11.000539681177097 12.478372878783679 13.466359721758314
Na 14.259581454200642 13.664513901102715 12.042487661616326
Na 8.862583744417009 17.89867370027448 14.857044382081666
Na 17.23941370257095 11.595089860338813 10.56689289037506
Na 13.060909348182282 8.295920893340526 7.8205173054889645
Na 11.538082418939503 13.735879831056407 10.026275001414673
Na 16.8255077883674 13.26668755919802 14.279230135211998
Na 9.308843160799668 13.961508840885045 7.6363844156630485
Na 16.981401057207382 10.328556065695565 16.067507760982846
Na 16.236176237253254 7.9298664914282355 9.418904930741967
Na 16.844112359742507 8.827127015081118 12.759329830349914
Na 8.328462793976744 12.274129235667822 11.0788750369351
Na 13.662740314880097 10.653565173892769 17.47408258119115
Na 14.973094441472613 16.54228159276956 14.063765200159137
Na 12.57975062253318 11.997869144010792 6.929006649733769
Na 10.570900041804613 15.455629259741123 16.623623846516125
Na 13.448389015256563 13.66971112704059 15.632728751013202
Na 17.278505408307197 15.201037572709964 11.290253756627438
Na 15.278960966180998 13.882849680207874 8.527635226119818
Na 10.775679922218242 9.569540579178517 11.816259365331565
Na 15.972068993873883 13.440393499904971 17.915699911682793
Na 12.216452669405204 18.75088078395161 15.311888077690552
Na 14.66467177604901 7.606032119055973 15.370356229945143
Na 8.65734518006057 15.881913901159743 11.331094275173355
Na 10.673143708312333 18.219598512366165 18.457818429822797
Na 14.069065032441106 10.621101805214227 13.766794923265552
Na 10.180504677102661 11.863367482682655 16.882910750416407
Na 10.421535140113221 6.776772559851321 9.783554764936454
Na 13.773038819872774 10.702826266770158 10.146047447985191
Na 19.481581107912397 11.22845918531253 13.341093021469648
Na 13.49618517557698 7.4137408055764 11.851209026166323
Na 9.290937068522425 6.723227378546881 13.330263815815822
Na 8.067735621955604 10.18220243437458 14.255530235842967
Na 12.470506310021843 13.892892944970368 19.13768004224549
