47
Energy = -50.82262673 eV
Na 14.942093323682002 12.142087482873745 7.383553521758065
Na 11.248977547116342 12.60420108691808 6.6562218543690195
Na 12.045487296008352 9.409317321980879 8.282984073666736
Na 13.275735186836638 15.329526087663771 7.936970217359868
Na 18.08103453480318 11.547664977102547 9.239793381717213
Na 17.566154188845992 15.002103126058069 8.219341374528696
Na 11.47977111383299 18.34993858969657 10.305845927121766
Na 9.869785206204124 14.952176454211083 9.321673934294918
Na 12.478120955356205 12.529341254232492 9.786634234995393
Na 15.025043113594453 10.147328961016811 10.676019662523869
Na 9.102287389035407 11.237578307480751 9.507705129603389
Na 8.99321113440649 7.848233246958244 10.759851261463183
Na 15.251789777998173 17.502041814982896 9.660548648903545
Na 15.756136006507253 13.90385038423019 10.724355576264303
Na 19.440561538679702 13.740267121429037 11.516193027082643
Na 11.577322913102794 9.710937061911984 11.916835594190973
Na 9.15943264197973 16.454795937568548 12.765561664286647
Na 11.134089155486551 19.10705135334299 13.968763938399242
Na 14.569500486067952 18.642938258924154 12.927269719847326
Na 6.976398905651731 13.571686700764323 11.527588568049072
Na 10.226427778717852 13.083748287385188 12.38257042776782
Na 12.751447273687756 15.663626838016881 11.763515115042317
Na 17.74833970760095 16.80006943002559 11.948912523004289
Na 11.840976691343068 14.729555962983774 15.175418435629231
Na 18.951914631802 14.828664907830047 14.949767017671386
Na 13.626803296719606 12.406887625394793 13.09301717966157
Na 17.099564267564972 11.804165170054633 13.540617222252294
Na 8.054250029557293 10.381084200770065 13.143017389058148
Na 11.191744259273097 11.178156477604913 15.366538379811477
Na 15.481788628059828 15.239804936004079 14.200854120862012
Na 17.288040780229732 18.048369657052604 15.316675853651523
Na 20.54806626503322 11.77557934489939 14.38490735380626
Na 13.611142993466336 17.65663053267185 16.314168417868434
Na 14.226271836268705 9.24655591153105 14.571305328703271
Na 8.063521861361968 13.518056190462671 15.046394058717327
Na 9.753889506657398 16.986542952882818 16.546359577018624
Na 10.034049842437849 7.701834737286901 14.404388269325269
Na 15.429484546835996 9.46823116069809 18.044347989562166
Na 14.560549161969035 12.51483276720119 16.4689858927374
Na 12.998567068654669 14.89879877534643 18.662594291643142
Na 18.064627564438798 11.986779223564648 17.099327241031418
Na 8.777004533330114 9.975478397839737 17.21789541238139
Na 16.44905848903197 15.38093136826147 17.63814097004087
Na 12.006371602412461 8.185571644065163 17.33169067424704
Na 9.786202445516343 13.454061237241545 17.99536370279307
Na 15.612798610014108 12.578144923482752 19.81805771406348
Na 12.304732685821191 11.235340583096185 18.95202690422547
