47
Energy = -50.07937852 eV
Na 9.821501186600637 16.7837773775815 13.865640610011708
Na 14.378224350481664 22.352852035995284 14.952423022189036
Na 11.078474713482947 17.750684376865284 17.34376571207034
Na 14.467468328026126 17.465717574779664 19.557635275279196
Na 11.131510578276348 18.405952208016803 10.93822450706126
Na 12.200751064955183 19.588235869101766 14.409474470919019
Na 13.338846934683778 20.51926916458182 17.826497567188706
Na 13.128239242243865 21.488633411631156 11.533550593087451
Na 11.782187483699229 20.642824642857637 8.291371897820078
Na 16.58404580512802 19.772185541967886 16.77356330240762
Na 9.646870685975607 12.6674466093571 13.970859858256503
Na 15.497877821646163 13.833508800370982 19.96219881477847
Na 15.70520799751057 19.61185147545616 13.119983249735887
Na 8.989366250028993 14.94915275945206 16.80815712013188
Na 13.09041174768646 11.186494430899497 19.5106041123965
Na 14.40901055394867 17.215531212528056 16.13148971894716
Na 11.039512615846093 14.597949908262732 11.110290958986994
Na 17.508335799008652 16.132520264529944 17.991549764443352
Na 12.329462885694024 14.531482613031217 18.534152232067427
Na 10.039472376785373 11.627207140829771 17.618499445723376
Na 12.210152157973809 14.713458141391333 15.095542503052803
Na 13.779423126620737 16.626660809738556 12.636883843452706
Na 14.347391585262613 18.63541356336052 9.59740152738057
Na 10.717977786675274 10.126952255441562 11.513654601809872
Na 12.932055745668212 11.362810873960834 15.899978192609256
Na 15.442442339642627 13.767851038058936 16.36187953364315
Na 12.531287977801984 11.787577699188704 9.010592062103544
Na 10.229994448596777 9.190688934787659 14.901397152526826
Na 14.382065445043708 14.776667844966724 9.644450298456466
Na 17.576502433927182 16.86481986543146 14.502074448335735
Na 17.141209687025064 16.976211420188076 10.859480251534649
Na 16.311854005332517 13.978626336213928 12.71572331339891
Na 13.206444438679693 12.346675512670123 12.558832001154427
Na 16.017979801456207 10.810035325718154 14.227160792794724
Na 12.937816027023622 8.20216159521604 17.23727693932739
Na 18.844442503264357 13.486161907261923 15.251071498206903
Na 18.543975713690667 12.550285797484957 18.52805858328147
Na 15.985177497131223 10.27922108914575 17.856008495290958
Na 13.409654305348374 8.438564436253092 13.47229336804282
Na 13.585070498724166 8.297426993950744 9.993065498698787
Na 18.940200013138654 9.86987609734885 15.769148615503024
Na 15.701651541555488 11.075276389098565 10.499920333496936
Na 17.873245061059105 13.671295204076872 9.376021080474455
Na 19.772150301565524 14.947173057937588 12.138709071744248
Na 18.860293596589887 11.33307343592831 12.190810803673717
Na 16.760527155845494 8.044426529305094 12.114842708793823
Na 16.126490357379097 7.4295849450110305 15.617256030679702
