49
Energy = -53.31708313 eV
Na 13.549753437591125 15.447198697141719 6.948458077097126
Na 12.634326604412225 12.012288443657413 8.005213626254182
Na 16.159881871282124 13.247096956181693 8.312136508137426
Na 10.3175793576316 15.004790395763354 8.741187673700399
Na 11.621798114664042 8.612485319113626 9.256825138214287
Na 16.16092554998363 16.855995313492325 9.113646666229872
Na 15.184322236848086 9.808587052120835 9.514065995981149
Na 18.65670456488075 11.05733126852529 9.901460272014612
Na 12.396620660285036 17.962349841420515 9.416922269813819
Na 9.347418040351862 11.557844554977375 9.856439544373558
Na 13.549064952040283 14.663839578051492 10.32745953859418
Na 18.68945349135103 14.686075251849482 10.59216767223513
Na 7.253963560467191 14.486691548029395 10.666927061271139
Na 12.552831934152348 11.231561907286927 11.532959892461648
Na 18.554290913987963 18.220433966855378 11.513780076335093
Na 9.23249011755499 17.514457953828412 11.297568093312483
Na 16.120873634112183 12.453992923509919 11.818581074171304
Na 13.666522292915312 7.895458287800429 12.332876357815513
Na 15.019951315916117 19.324430200756254 11.565676020798659
Na 17.18102208186202 9.11339257383722 12.679160054591934
Na 10.34921168032021 14.178785623095198 12.192012344075113
Na 9.974488813381964 8.924898958731983 12.633785521982064
Na 11.425594043978903 20.334001113271086 12.034417020108982
Na 16.07113432639 16.074344486890727 12.645720049609457
Na 14.582762185057819 10.571018350951421 14.63702164506072
Na 7.664594947919935 15.59112478905705 14.161947654281596
Na 19.348792820394408 15.60097793583939 14.061913844519552
Na 13.5151328303321 13.85858447855475 13.779467771083322
Na 7.778009975851154 11.982789291030748 13.369336858989271
Na 19.34068469158808 12.008350514090466 13.407767211580275
Na 12.438749631892337 17.14821943241186 12.900453880139086
Na 8.511846810500451 9.460263320442078 15.981649517439962
Na 15.57227118001853 7.3592756529707914 15.468964997968431
Na 14.357801587293299 16.418781341295727 16.022974392005068
Na 11.997399898670121 8.337705288027275 15.788787073710091
Na 10.846475024248235 15.224805199958064 15.725631684979136
Na 16.71635480707135 13.502234629542352 15.358123439489171
Na 10.984226633749737 11.615322484511012 14.89303205797323
Na 9.777469835841387 18.56024396398172 14.830445752674475
Na 8.288587439560517 16.574897417397484 17.62118672525868
Na 19.823682405430823 13.138830993549323 16.843088603212017
Na 13.481854719482762 12.99764930505362 17.25436220687771
Na 8.304484504223888 12.99781489110328 16.896371647476194
Na 17.8284817978092 10.15587610645791 16.190311633701214
Na 14.49340061678545 9.689276250103655 18.13901358597453
Na 10.925830122551139 10.760315244710736 18.425406610209095
Na 10.830759260332588 14.38480612760925 19.243472955940273
Na 16.751792326583843 12.508417743424156 18.79653517787866
Na 13.477419300293102 12.19317598158051 20.61237547224234
