47
Energy = -48.83493137 eV
Na 15.753678291057437 8.891339684689115 10.538896727096192
Na 18.21043368996135 13.96260283435911 8.689249218895185
Na 15.54102654149106 11.646887581935482 8.342121918318767
Na 17.922262893635956 11.561814244077652 11.160957756483167
Na 20.0897229077173 14.24894181982925 11.614100355735836
Na 16.73658496232787 9.74347094939909 13.733578172304318
Na 19.22077534209442 12.496942161556099 14.469227432716547
Na 11.061943858832374 11.118030728233753 11.435147866250317
Na 14.995155979019938 14.827107004136028 9.776708368838841
Na 13.386250171007095 8.848189123796445 13.146399427705733
Na 17.751138749751387 17.029997527313345 10.115652910546917
Na 18.381976028735654 9.710478645324432 16.685542395679686
Na 12.35175496455081 12.798058721425253 8.866439547239386
Na 14.42670504101585 12.004174324569433 11.785926307445914
Na 16.55248885562005 14.447464679935253 12.957054527492717
Na 19.07247620096718 17.090259147496287 13.268330204623778
Na 11.789321017268492 16.10049506448836 9.410558688651404
Na 14.874211766851179 9.170220688371764 16.6708169335924
Na 17.898363515902638 15.502325822614262 16.135462175951595
Na 9.89130836165504 8.782723312049248 13.68014332129688
Na 16.026887859752698 12.448473425849443 15.97983627251978
Na 19.175658077989677 12.810996899844985 18.031445699238372
Na 14.587624849201791 18.223818568051733 10.038206412857972
Na 16.3938723056599 10.900007906569865 19.34674846528514
Na 11.635187449251239 19.614106790973125 8.92639964394153
Na 12.606433925791762 11.838341128399437 14.712703679345125
Na 18.108649046381217 19.142475017580292 15.734538382988246
Na 12.972676903370132 15.358496558494483 12.77857038914983
Na 9.69748606653434 14.579070684137045 11.886701741828766
Na 9.305276039408994 17.991790475186722 10.844777994317628
Na 11.678855989778043 8.44284442903372 16.49515741073412
Na 15.469711666460988 17.812779797012755 13.660934575740436
Na 8.515209962395268 11.929511291078246 13.727129080332276
Na 16.246233191265915 14.329115520901896 18.979046199445
Na 13.845838699893621 15.270922425142379 16.066619779476206
Na 13.281541232689246 12.171377652213533 18.20346412184785
Na 12.3263949757682 19.16317591521611 12.381375172747697
Na 15.62123489027787 17.802647845662314 17.66840620581422
Na 9.77286991217019 11.265119679161767 16.905144224798715
Na 9.758399145646987 17.479441827719423 14.120381200953565
Na 10.475393399392212 14.403711834877493 15.35369302011065
Na 12.76493421745275 18.88824513284473 15.657657338818662
Na 13.344550479976187 15.649620072681365 19.677185094588882
Na 10.390711155107757 14.007711711300633 18.860953079487437
Na 10.224663753448292 17.162361536391725 17.384527204771057
Na 12.676026561954044 18.98765325629458 19.063584913253294
Na 10.396726255946888 16.988705447174777 20.795880345239315
