45
Energy = -48.25216585 eV
Na 12.89193342144015 8.554213447186376 10.128304388477835
Na 12.427117364205575 11.370072591353651 11.927884089418177
Na 16.79417059357732 14.430016936241126 18.122226001459218
Na 12.08319807800823 17.55158450310374 8.976417686660064
Na 7.06677169574597 11.768030346399476 10.049499853956156
Na 16.78239425813412 18.537615067110096 13.910805744343085
Na 12.059756003758194 14.518104721745422 14.098945313698941
Na 12.370817411408739 8.277879001722047 13.774466590690757
Na 14.369516412407432 11.805695484778589 8.89481346017402
Na 12.265913613196982 14.478728936928036 10.425968384066309
Na 15.649988888455674 8.3878269372712 15.335293011577338
Na 10.645384062241902 11.563764424680723 8.91992598063243
Na 15.75254486617808 10.077339659497342 12.209945510303045
Na 10.082512139423116 16.787800656713166 12.36450972419102
Na 8.260732098587953 14.518360519541389 14.928601549657218
Na 18.950143231173715 15.845863256597116 15.449532488993867
Na 8.89975346998371 8.671620390380285 15.638577174525365
Na 12.974055480791963 17.8717843480943 15.39745455183267
Na 12.500994945882358 14.447427716824281 7.034981451311105
Na 10.592161014212266 15.721772576144811 17.095652792187693
Na 9.46831034646236 9.433844816813837 11.826926145129084
Na 19.561962912779148 19.451296600688927 16.1716280015769
Na 13.992255813444062 17.053980085452913 12.06623118585319
Na 15.106281365341527 13.569605350351734 12.135910791226497
Na 9.131086563430197 15.084318883811575 9.069710380959792
Na 16.416053500500105 18.13666645998655 17.324703055860446
Na 14.109108071428867 11.603991720870306 14.914772207318668
Na 15.756946090815513 10.994690282748675 17.842740800073475
Na 7.015067153431676 11.334349232269759 13.835567494610874
Na 20.364199359221104 18.018808904064826 13.100153891619648
Na 15.342030558153596 6.647123270399854 12.119401503966811
Na 13.742546225910518 16.288683104705445 18.706719417869024
Na 12.197044850299923 9.509388572870348 17.20241728118768
Na 17.749514034959677 12.321685970398068 10.185251119125686
Na 6.526874223860145 14.910623016939608 11.821165196380626
Na 15.44599299135014 15.406450152454216 9.049310457496318
Na 9.065621621880656 12.120365101809277 17.71701337040135
Na 12.801447571539859 13.125483024161753 17.65318145647171
Na 10.55051249520603 11.51486324863434 14.834337931220464
Na 15.239920518616545 15.263620872026102 15.237319451940346
Na 16.566475721848082 8.835405206129524 9.195877507890772
Na 17.509047719006563 12.376981254038782 14.560651940726359
Na 17.840770175285467 15.59473863345393 12.021698432955597
Na 19.50348170045479 16.947622393894637 18.644800654393187
Na 9.465259177444588 13.157582130195076 11.966374387072406
