48
Energy = -51.84432967 eV
Na 11.27516528347875 12.252711306084636 7.111790092261365
Na 8.250776871686131 14.084204050086928 8.49356335459318
Na 9.128781324387433 10.160279050676623 8.749629458105144
Na 14.033305564949305 17.43020236974019 7.2265430803961115
Na 13.532169440985129 9.652211779394444 8.384642885711147
Na 11.697726582346213 15.437648101749447 8.818250419144293
Na 14.537258747771089 13.709733983239081 6.983480361434192
Na 17.020180738876594 8.375078509840673 9.342828237498065
Na 15.472964511794627 15.596746124800498 9.946025397616541
Na 10.78412478809687 7.099075505281253 9.056851929249765
Na 10.386873692312012 12.745600339529187 10.674550989461565
Na 16.906177266863832 12.131321932682093 9.345098608058361
Na 8.376976396889981 8.998010548648244 12.085836935879918
Na 12.741039655588656 18.28910213310951 10.567716743309743
Na 10.835650367132537 6.307039632073106 12.478907056939436
Na 7.008470468655084 12.52016797705906 11.735321958587477
Na 11.738545951626953 9.5606183885804 11.560289996502302
Na 12.698108925424847 15.126211847200631 12.375751987541696
Na 15.459205612463904 17.658810244710622 12.916576812721761
Na 15.203005655861789 9.98012217676694 11.770638707785102
Na 14.040516464972432 6.704739745517213 10.556553551147848
Na 13.632624569381097 12.59507036978562 10.233135399761112
Na 18.56568089276737 10.688074558805498 12.090790551776983
Na 18.676459967914703 14.69997457896381 11.70440589622964
Na 17.107367201632602 7.220155393094515 12.72779560996311
Na 9.204224920430924 15.756700617702725 12.28605914201511
Na 13.095182867342379 11.95609120819319 14.263549768151103
Na 15.941882222681773 13.451483819500984 13.082268150707863
Na 12.018607015496725 18.258367653251685 14.183999967669733
Na 9.70761936353377 12.082589136664438 13.762173094607176
Na 13.7432259811075 7.871818993475701 14.177448190504876
Na 15.073933097571619 19.04593427655295 16.223543621786373
Na 18.957617794184156 12.865996246182586 14.878081713386248
Na 17.521631095022176 16.182515468566077 15.45756189880959
Na 16.497571297860993 10.113561156653217 15.098682395064568
Na 10.424536848682 8.948045848676658 15.12127126942888
Na 14.135944606295055 15.693575328425322 15.5800814724956
Na 7.012011999582138 10.557396567077792 15.16730422492113
Na 13.32094897244651 10.316018215052866 17.267537359681455
Na 10.833000663426532 14.966843103594393 15.475526128545608
Na 7.395071696310829 14.282743762130188 15.33212433956478
Na 8.745483554118128 17.720282508331096 15.838176912637342
Na 15.894661914038988 13.118361198678063 16.984803327816746
Na 11.971093036756574 17.746972127020992 17.743669498207645
Na 9.876487276396018 11.966716406812703 17.264211144143466
Na 15.454257485691869 16.40921121785676 18.66296539244514
Na 12.647801321328556 14.084416167996846 18.46920443474435
Na 9.156734348872233 15.320134647220824 18.481466854024365
