40
Energy = -43.25039547 eV
Na 13.91645298004557 12.947147069430565 6.362285580887724
Na 10.655885565675048 13.842022631766596 8.118657251573811
Na 13.57721893377913 16.48495565934835 7.815904545555625
Na 12.174561988974855 10.545012198672495 8.780605202930863
Na 8.495539907458896 11.027624566622215 10.094700045584663
Na 10.027312394305516 7.59838513173532 9.903317103291144
Na 17.147927411361884 13.213518055452179 11.658724072840876
Na 8.20421865177964 14.80846038989431 11.486777776050701
Na 13.96294499458828 13.631450820984934 9.660750356024725
Na 15.988025513872456 10.82364429611342 8.960415111277458
Na 16.854019123138368 14.47718877757893 8.124959242787426
Na 11.538654697902256 16.083614463966594 10.845789828740893
Na 12.677981154267068 19.097015510091204 10.718704899536622
Na 11.06500586309895 12.791792938688705 11.423386988966238
Na 13.776650414335798 7.790553633669365 10.894411227197635
Na 7.825462972351114 8.38015720482284 12.845995176118866
Na 15.496700390435869 16.580583722570907 11.058430271842008
Na 10.982818690419315 9.617565948914667 12.336341599806962
Na 14.13861752714534 11.022944259146394 11.876859924664235
Na 17.143420479766544 9.591441783061303 12.809958110118712
Na 9.650904492719066 18.04856278422247 13.299099453022713
Na 13.849246260365248 14.311668991337008 13.06790495696034
Na 13.265137523295316 17.494536865265616 14.073922163818862
Na 11.012660836377835 6.462319691632916 13.267781034081974
Na 16.65595946498621 15.413929576964962 14.642121103403136
Na 18.884927331550692 12.299677166987003 14.886662598295176
Na 17.05129623458496 9.629286202828819 16.745405464593137
Na 10.60720713178318 14.855102862599026 14.18383265720173
Na 10.178295184773082 9.11604716017462 15.83096342587873
Na 15.51823057982921 11.954635973036693 14.895815409285026
Na 8.346183598772166 11.94155774496612 13.873805148593279
Na 12.024658125183347 11.721065264171818 14.70701607495898
Na 13.9252272777365 8.620822390384308 14.650487804660354
Na 7.523473650223744 15.506969260398211 15.275062743309451
Na 13.202449908545827 14.176040408412362 16.723649981324417
Na 14.739920259392015 16.953521248536028 17.37946340385211
Na 10.763236903279505 16.925263520556168 16.89182687208235
Na 16.585832444067496 13.325666434454835 17.80745328811538
Na 9.810789147165861 12.97529162435329 17.125279908796944
Na 13.534641869711555 10.692653645230978 17.67517007101435
