44
Energy = -45.82807717 eV
Na 10.384305053872326 14.168457083160794 17.303444595136977
Na 9.508763648563185 11.423817128855827 15.033659458616732
Na 7.502906491824634 14.184469050025333 15.224862569834244
Na 8.999789425911441 13.903117133209935 12.199352218324877
Na 9.311863418400662 10.46392862348162 11.535047710097292
Na 11.414141951636156 16.815799908689527 19.2430533897278
Na 12.424170098261063 11.246425878969482 16.94270164153532
Na 12.312539652525215 10.249264835228391 13.475768069171847
Na 13.551750263806854 13.97085638672181 18.864331629645744
Na 9.935420394434988 16.655161141955425 14.514151562935899
Na 12.049421809083936 13.753131434030152 14.16310441334506
Na 15.291599504535908 10.130800710611334 15.182126470271921
Na 13.313152008317582 16.27824010714864 16.20394862479756
Na 11.537662338144361 16.257858923771128 11.317223271773416
Na 11.904224763990438 12.737544174111106 10.74625474488734
Na 15.67291126252108 11.192365352942142 18.492070083326514
Na 12.155717251303393 9.19128772668125 9.980726422887175
Na 11.083381014562786 19.17831529517649 16.62285288848722
Na 14.545133392650433 16.6568795579606 20.808472536895348
Na 18.44714009099105 9.870471076121394 16.729227871092547
Na 15.510544074543589 13.616321685301152 15.939649572541478
Na 12.700620438475953 18.660936165766216 13.522103322097644
Na 16.7289014519106 14.00606793105365 20.38604970007494
Na 14.424503392467253 18.98010411447669 18.26242225523741
Na 15.02470038313109 12.544441686850679 12.610570602926916
Na 13.818744818377112 21.205773377632273 15.656619010067953
Na 18.897835509068468 13.218103541056662 17.511028046780147
Na 14.319313553840324 18.297992314344178 10.410140794987214
Na 14.461041624086048 14.849577026601848 9.832634989787872
Na 14.71607029739583 11.362023011742878 9.091131107771801
Na 14.919483184477597 15.968371607716787 13.13490061823761
Na 15.095404224532174 8.93610505137537 11.830941595788723
Na 19.826441450716935 15.574539157439137 19.742409280960853
Na 16.919002833580834 16.501536069043954 18.00094354431518
Na 18.303357237438977 12.314669004885314 14.17942600232066
Na 18.42992945120225 15.763134084064856 14.89234331871693
Na 16.137949306082746 18.45345616162204 15.291837554966119
Na 17.814482920755044 14.632353348477213 11.5918798644883
Na 15.510846936815291 20.741371953972134 12.649198540278723
Na 17.34839538785522 13.472617497424276 8.2084069197241
Na 17.21618148990146 16.89845270412691 8.92207199115632
Na 17.847368139551143 11.203944119555985 10.891904939359446
Na 18.146748236422397 8.79021642396866 13.478078667443315
Na 17.714038048196965 18.054423865005642 12.209143313426496
