48
Energy = -51.63135046 eV
Na 13.687665225953065 14.415662602112123 7.519571203972879
Na 12.749275330794529 17.180169807086585 9.73923367573547
Na 17.27037328908121 12.897133157845468 8.991149409769791
Na 16.463994684131702 16.53644313232146 9.346961202093476
Na 14.230107492023789 10.910738487508848 9.07656217924402
Na 10.955790898028708 13.958149019633348 10.019625301630658
Na 19.99693553045287 15.224953914144384 9.986263194838147
Na 17.684383520508156 9.239042692755103 9.989091922483357
Na 14.361859359384612 14.040394527725025 10.820546730713156
Na 11.13630048107497 8.609408607816174 13.770292821801382
Na 15.021634732368451 19.754833097373915 11.002532469752143
Na 19.88429191779492 11.829192082529769 11.811054289201794
Na 11.933835837742658 14.896600747500647 13.477741345761485
Na 12.125026549539504 18.595326541417286 13.09154947643653
Na 17.554794789370238 14.3964440023621 12.190762447728865
Na 18.573281835812704 17.77994447535746 12.176684974044308
Na 16.232089444860513 11.31959406168631 12.191416239257542
Na 14.629647785104307 8.245293028695134 11.833674968572991
Na 9.307564221328311 11.954399659993575 12.712783507852055
Na 15.043660743786498 16.775204125338966 12.640988033869661
Na 12.724799817350384 11.34233418833046 12.249407937566826
Na 20.724607028475937 14.891822659515746 13.70441659695621
Na 8.654007673800734 15.863670299567564 12.964271434739192
Na 18.362600407750893 9.04385640876117 13.736772682924592
Na 14.96704453433149 9.814992006815809 15.096636959325153
Na 6.167642745162171 13.162842392672607 14.4720382681132
Na 20.112570759850158 17.968133028644132 15.597875362121963
Na 11.805436901607345 11.40576617369173 15.570469391530706
Na 17.422801872227577 15.909643105531543 15.157265475692109
Na 14.792097745137637 13.490871310455894 14.621346314630733
Na 8.224386443672673 10.392514641124052 15.70794776506538
Na 14.115146367334477 17.040582354115493 15.975425910953785
Na 16.415555003574784 19.403924800665756 14.635699226574689
Na 9.31617102018711 13.809128547759896 15.817542771649215
Na 17.834604981447203 12.176623938761123 15.486683957199071
Na 21.194729756291643 11.54213022941117 15.204545988731802
Na 10.582222819770445 17.185190184242863 16.109972991013752
Na 17.174641709890253 17.78060759957354 18.00006767315273
Na 6.850189728337516 16.199347658929558 16.206163953385104
Na 19.828592847472777 14.644127269063826 17.29002126361343
Na 14.02560394520298 11.283976177489466 18.32692162062378
Na 12.449062227622745 14.253700636115337 17.317559769924475
Na 6.862105890575542 12.908956908922955 18.063350849320813
Na 16.032702800538516 14.360010498235628 17.952224564616994
Na 10.290607141291396 11.74505074385927 18.791007414070034
Na 13.102304052413853 16.85185373288529 19.33521263166892
Na 9.506022082616129 15.424888581305696 19.069098140254585
Na 6.093825157935573 16.019123283360614 19.626164820831892
