44
Energy = -47.28488137 eV
Na 18.713428541702758 13.234557004033887 7.497144940818459
Na 10.857919423821746 14.91102350836939 8.691499173334284
Na 11.519437387240261 11.741630308870167 6.904630236684904
Na 14.997306837280258 13.140797675287036 7.058214045858397
Na 16.616357116438902 14.84597959267269 9.734924803547226
Na 8.903947959803846 11.832223448652881 9.48470172395955
Na 7.744669253731181 15.425368406696684 10.559685406434447
Na 13.799155693042364 16.52073881785365 8.19412627170017
Na 11.120702818817039 8.864664839213939 9.354507282753094
Na 16.828794685809537 11.0500818442707 9.446732445190912
Na 14.205777280998632 9.61385838146011 7.727245926413625
Na 11.068728942111758 17.339893123367236 12.008287524511426
Na 10.442617716276018 13.803609087581398 11.979421694465495
Na 11.235455432401524 7.064208509896467 12.766678682829108
Na 14.096137604472336 9.209067487174586 11.721063606387807
Na 13.07145814060645 12.142985747011299 10.01458491898602
Na 10.479962081042059 10.368266860950499 12.348471927542617
Na 19.277647076110505 12.959852815250288 11.260984570927292
Na 15.997565064197872 12.458174104323081 12.413018773147817
Na 15.011314911439882 18.15312981683623 11.060482584567671
Na 7.894458136103326 8.627450149110706 11.218561728126344
Na 13.74151989205629 15.069066961582767 11.830614816146813
Na 7.216085588418615 12.213252036319487 12.735728256175857
Na 17.210811384944133 15.796343512150267 13.115057998647567
Na 12.962587943953451 11.955736383026204 13.752904685103148
Na 8.231506394899471 15.529327003351108 14.289768181039987
Na 17.54597695130168 9.432441220645494 12.993625562030557
Na 18.251586147575896 12.847478826616918 15.167060135499428
Na 14.219001728327262 17.5947442558509 14.629192796198408
Na 14.71582156472495 7.1167687936286175 14.547560032612514
Na 8.10538808858469 9.331720905250545 14.92766079706412
Na 11.777594086686578 15.117283186572354 14.883609272180705
Na 9.800268877941281 12.299162732841248 15.202685328254503
Na 14.985907065745153 14.087258728180839 15.34809361315734
Na 11.828443337485151 9.177708253844946 15.703135192322458
Na 15.416456826316978 10.436947467743295 15.816529127500418
Na 6.584741322396248 12.573023606370695 16.355152802560223
Na 10.655051897102167 18.1278259090326 15.850342068887958
Na 17.219155583731073 16.109728768836483 16.737775222507853
Na 12.590479254014879 12.410478639226936 17.49599100302797
Na 9.653707777785266 14.697637499204852 17.746018400519326
Na 13.450633377324596 15.896584695650159 17.937992750047155
Na 16.019975866668414 13.072691379694392 18.474454781802397
Na 9.24193556869077 11.106706335619197 18.321557538650968
