43
Energy = -44.59457726 eV
Na 15.803144877891249 15.164801739081813 7.082863816852942
Na 17.372628283118935 16.53403115591575 10.045442429454862
Na 17.54672071767657 13.116551922415585 9.287992700647619
Na 19.398611810318783 10.857264108355569 10.892323720968447
Na 18.668527124597276 19.574564644515533 11.127105156964817
Na 14.09066286548566 13.035627745719518 9.314317547252864
Na 13.781414261477174 16.62632503309471 9.520724059800411
Na 18.253269314285046 17.069970815932958 13.620021115513573
Na 16.11355192801915 11.316206489244665 12.104896831287684
Na 18.596737848590248 13.937943086611142 12.4175335507236
Na 15.323941605670733 18.803787451765498 11.827879545688177
Na 19.012884712014777 10.899295149142128 14.190766875916847
Na 15.018678324502014 14.778774932653562 12.319133600063951
Na 17.394964948937425 20.280103888482373 14.186771765445432
Na 11.534301762290102 14.480583509647838 11.234496935705371
Na 19.56245666402541 14.665285748066927 15.631788317883442
Na 12.741888961191744 11.299521608685167 11.837170951550648
Na 16.635605362690914 9.773912586141401 16.51259928416824
Na 15.005721830889573 17.089730783768807 14.990818499172818
Na 16.254926302798676 13.26183558873645 15.209976922168185
Na 19.736254789878764 11.67489286455318 17.39555448932088
Na 17.682262723452794 17.711590466449277 17.044824328818077
Na 12.283989924314497 17.678136696776065 12.678827988398284
Na 12.727723036971854 14.322279921573633 14.928025453595945
Na 13.534577954718067 20.25989512175428 14.707089549539324
Na 17.448718301184055 10.99787219953995 19.836564747902372
Na 13.647557232435846 10.598689768813966 15.037907213510675
Na 16.0535890095117 21.360536069113987 16.972478501193347
Na 9.54226798119809 15.829423767030752 13.52145129066857
Na 17.595949345378287 14.231632991426943 18.32670747992364
Na 10.239461179499404 12.113207432945087 13.967020061173082
Na 14.271199206538796 15.387887293737078 17.92733314230649
Na 16.860609495050614 16.96709763712863 20.3491851623707
Na 14.578726168475209 11.972085233185448 18.113024376570014
Na 11.584090353566097 17.611275364638786 16.114553778883685
Na 14.327085188715587 18.791832318532673 18.22207242727159
Na 9.413469090884071 14.690400026421338 16.59793386581786
Na 15.631402854668332 13.759448995946938 21.109604868952196
Na 11.19545713381365 11.7898085255852 17.329077024743484
Na 13.585818787234647 16.908929317032364 21.088285313657284
Na 10.803547815575305 16.455228551134795 19.295258228061556
Na 12.334792581661983 13.538398068410293 20.296698859795647
Na 8.930357204420842 13.376834069912587 19.691464431473783
