48
Energy = -51.70641686 eV
Na 16.99142252135113 18.253883788394333 11.446549846073856
Na 13.26758531271944 13.675699714863391 18.931055002103584
Na 14.582263122300436 16.572268797567045 9.264785410033165
Na 9.08766951944089 9.713703522291251 17.487183957843854
Na 14.584862971627395 11.404884507728175 16.218782752993565
Na 16.22972060731726 12.870592179918782 13.446323303810795
Na 6.415058697664773 15.95625033507702 14.623465791282827
Na 9.193134815899421 18.213371404231506 16.06226787279291
Na 12.725825630131995 16.681500094317457 16.093215110280855
Na 17.162545553008215 9.758981260017471 7.404868969809292
Na 15.613215862714705 18.547681922479477 14.904458233750146
Na 11.329948155894682 8.469057807236773 11.088311186158947
Na 13.832524414382082 10.315282576123742 12.55490492786556
Na 14.127910162649462 6.957109531887593 13.478323440500658
Na 6.974973610031389 15.912484779775506 18.04213905415817
Na 19.6311306731238 12.34071985031863 12.52958674749795
Na 12.35670777032899 13.679393835607554 7.701218247271904
Na 8.891359666809361 13.772978467672159 8.68929599399272
Na 17.549248497521297 14.761917043706124 10.799296956998187
Na 19.579502860296014 12.868900160205696 8.706927691735885
Na 18.296799169111388 16.44839788845019 8.039794371683643
Na 11.130514820282148 11.989821077686932 10.712564436190073
Na 13.830396251759485 10.388177318114082 8.656176368430241
Na 8.614448656419118 17.313015043210054 11.962364332432857
Na 18.19420758032929 12.256053964888164 16.106832142907816
Na 12.66854129367123 13.359068767717424 13.781497949791456
Na 8.085115378334251 13.645724981515311 12.19172067783108
Na 18.24371617609624 15.77621059369942 14.104772185974287
Na 11.11018827620345 12.474798552923922 16.6530449303434
Na 17.090979668428375 10.982517207399365 10.547236051889843
Na 11.422207063676476 15.457990301597757 10.879654048452544
Na 12.446618958329902 9.938221678297316 18.86800816459967
Na 9.162673828184715 12.679903933111282 19.56175412779393
Na 16.196393633798518 13.30243099060349 7.643091962955735
Na 10.316142544951681 15.678849981625088 18.336470937636395
Na 14.280009382578147 13.328797409730797 10.58665322374455
Na 15.137110848885623 8.04620505329466 16.89745914874787
Na 15.672410621531808 7.7931860201342475 10.30261271366191
Na 10.344762107901795 10.529159197388225 7.64774500167083
Na 15.608771343092906 14.893178241359198 16.323488212378464
Na 9.948562749362372 15.264491500996208 14.542802080104513
Na 7.627686992670141 12.971167207065873 16.170135269552677
Na 8.08338807510924 10.425357831076239 10.441960177848653
Na 14.71927297929112 16.0020734517023 12.850315262326461
Na 12.027349218927032 8.990380759835162 15.380513677234736
Na 12.137675206139662 18.258786814034966 12.932293647373747
Na 9.754648341554656 10.893775876792548 13.717352641393155
Na 16.951420241482705 9.414218609647055 13.917347591410465
