48
Energy = -51.7358574 eV
Na 10.886885187035299 6.6901543838260356 13.688571941690086
Na 10.416502897799694 7.706576666678145 9.821287254792866
Na 13.640823647450167 9.055364664855128 14.664223460868076
Na 7.25922765749062 10.235321837621065 17.962979794162496
Na 18.335368000100125 16.616680639438826 10.340659300957581
Na 13.181516697626718 9.29548610592953 7.400863519858915
Na 16.924991666237908 9.9664641384861 12.957440818316067
Na 19.57033387442604 16.318874809895696 13.658506067385959
Na 10.607726384296843 15.581085226408298 15.215982647010907
Na 7.980240181096 13.193854487878205 16.147835756050736
Na 7.9613364216842415 10.627709410221938 10.436293976826978
Na 18.511556166975275 19.64255626893481 12.088999747962303
Na 13.544608345802695 10.584816196557059 17.969670349357827
Na 10.34381394787622 9.367289840950342 16.4203025710252
Na 13.349110961437438 17.71108137927399 16.017211374427593
Na 9.36409066433857 16.85026907388159 11.525542047291466
Na 15.00979869933903 15.275679905528788 10.739678575735255
Na 16.640410216808466 12.428713978683222 18.59033317695788
Na 9.443847091402715 13.96248472668761 9.10202799861415
Na 10.428532640234268 9.993863747708682 12.844272335455654
Na 15.90064579369497 15.924225166030947 7.464966265344819
Na 11.422970645675575 11.075215776223683 9.721430734559288
Na 12.685044218011692 17.804787727322957 12.409790404833418
Na 16.091220338847528 12.230383769552942 6.219657321340653
Na 18.855311836278176 12.160331493204565 15.566648059499629
Na 8.539103518054269 13.347255732014089 12.680570303853491
Na 13.476515585995385 13.283514060148805 8.232750471008043
Na 9.891203937326612 18.892088561209743 14.488581502388197
Na 17.711394452274256 13.38425022474991 9.121973558271657
Na 15.387792606525574 12.076067854190693 15.376812993481186
Na 7.015343866954892 10.339507607893745 14.247867737321078
Na 13.46507479423295 14.320938659374374 17.59536880326492
Na 12.290719212855828 16.67865143843407 8.966193979239913
Na 17.37734486638518 13.690273387646924 12.731724301508068
Na 10.347412936235973 12.39978190520522 18.469730076844698
Na 11.735713718340154 12.330160395282292 15.029879105570533
Na 13.586662375693162 8.352516270745411 11.126042745295369
Na 7.8128981663935075 7.2292467433790115 15.727980458183197
Na 14.005551518234423 14.915175260366762 14.10465955471398
Na 16.207257107430202 17.552207444931366 13.37592102023846
Na 7.789621540793253 7.52008600821841 12.19390705585697
Na 14.075083415914566 11.846573124670668 12.086658958328949
Na 7.254533585742041 16.363577785994778 14.418616047622873
Na 16.74573500379221 9.260264935822464 16.719951671975515
Na 15.481872294685909 18.791630911502313 10.051485126447695
Na 16.862115241292827 15.254991275574758 16.180622856202362
Na 11.701763434407413 14.225818817848289 11.623856994539482
Na 15.77160227042306 10.53437980496418 9.361898809467492
