49
Energy = -51.42566097 eV
Na 16.906360762340285 20.0971184369632 19.398713656401828
Na 19.334007685346393 19.228443896772212 17.092367369002684
Na 13.794152401030388 20.297378971593734 18.079611201656178
Na 14.914054554667795 17.604854872366083 20.857947102353307
Na 17.953613808193264 16.721023058582688 19.333527134826802
Na 17.69393458444468 20.08544050917875 14.097155614629113
Na 19.473016138865145 13.607043166302958 19.21302241023775
Na 14.33794662259273 20.33544106191319 14.548134510550366
Na 16.01578381522403 18.08593122358207 16.583911555781846
Na 11.086142669171105 19.887907773577087 16.127742523869735
Na 21.06265642165503 16.329515295310436 17.448951758548738
Na 16.23054102155354 14.03921118852011 20.991044056096253
Na 11.858409672342953 17.42937213433702 18.599505862599294
Na 12.60150527170761 15.09982492112256 20.978281566238255
Na 18.04307853302121 15.293601792085818 16.031655499712148
Na 16.586609179390088 12.335093835097839 17.768880001169975
Na 20.232083492498628 17.506961232947088 14.12901187743474
Na 11.60301055767652 20.018200143792512 12.642338166561093
Na 16.143070650649214 16.81314693352095 13.413695869419042
Na 14.747495203655724 15.368698911850423 18.086164159819557
Na 12.926113112212418 16.825684885725078 15.054752868136145
Na 8.18283428920773 19.795766352956473 14.299841310565364
Na 22.610581282779236 13.124317230746929 17.625200158087523
Na 9.325706779224399 16.757780691366094 16.260404738153525
Na 18.51203528542103 18.403793871507876 11.241767073668083
Na 19.63944612917906 11.739173616028609 16.10081886476174
Na 21.37817712997487 14.291210216204735 14.498829795662774
Na 13.475538815467107 12.185526843014374 19.460357991336505
Na 10.816403070944704 14.074318929798592 17.949385198918105
Na 9.868587292900058 17.097828599310628 12.813809662042214
Na 13.717153610296958 13.225740325465459 15.849276648875852
Na 19.033009217933294 15.090124700185942 11.947688114450225
Na 16.747660485427737 12.881267476748626 14.082445789063076
Na 13.15426434606538 17.251901409647726 11.28591038312223
Na 10.571995140829358 14.088376203940832 14.372908633477483
Na 16.15986690446666 16.377205357820987 9.882677400426491
Na 13.835552315397504 13.981031063775141 12.530829814030325
Na 17.12353384001644 9.478349933428051 15.477551177066333
Na 14.128122388825586 9.697447956751608 17.288427753599375
Na 11.052498159871783 10.991291293847317 16.121443196638428
Na 14.002459942206052 10.370635919298582 13.919088031365561
Na 19.69341965627194 11.711219405240174 12.4856346176248
Na 10.722119173881763 14.493367590534634 10.908865014849926
Na 16.84724440096415 12.901392786041015 10.459532171200244
Na 11.059428474257752 11.350472328189019 12.333529223850585
Na 13.729480479413208 14.119473055740619 9.048284659807003
Na 16.9507763607765 9.612326931785852 12.042851100082432
Na 14.075711189543176 10.814075572152131 10.450618570122131
Na 11.11532541691997 11.731172819495974 8.764048888905675
