47
Energy = -49.32869347 eV
Na 12.838881467419759 10.465013071379865 18.210518115397306
Na 14.24615372898589 9.90339914506119 14.995390035110423
Na 10.806012985118203 9.935167658331903 15.291216438266641
Na 17.595132421408984 10.678133338401187 14.771542876112369
Na 19.650704577514723 9.837338891363181 17.426589196516495
Na 17.8383573359149 11.455104473302722 19.86534222789466
Na 14.72735129852418 12.579797774093768 20.862678319511453
Na 16.141410096990636 9.014950604549263 17.753374150339603
Na 9.57488440271528 12.26534398251615 17.49986834000007
Na 12.311727509357313 11.253008508398636 12.459491765034906
Na 12.310316873948873 13.99103142400821 18.708797846082792
Na 15.74173234656228 11.262880982953432 11.877911935082691
Na 12.850275359798733 13.32914528979619 15.267640356825813
Na 18.959063240704452 12.727894102771414 12.0565165391089
Na 9.572681719817114 13.072886734155619 13.990449152354367
Na 20.91175578569095 11.807230942875469 14.6821727572723
Na 14.186576967942228 16.034011127204657 20.805540427422592
Na 18.92412160388818 13.332678218548386 17.05861588662537
Na 16.432221869844664 14.009360627891692 14.380608547569388
Na 17.344791239854043 14.951569284512404 19.767768836583194
Na 15.472447069885707 12.64098163710313 17.378484952640452
Na 10.253490373692802 15.573053991502018 16.382857557796324
Na 13.575974854369687 11.998006213814355 9.263248890635357
Na 17.918083394921915 16.580270666343754 16.623967627361047
Na 14.459123218839249 16.336746605801082 17.164590960481483
Na 10.524252444897277 13.729041545730226 10.798948692439188
Na 11.582324036094587 17.570089751050332 18.815954337698418
Na 16.99163906069602 13.796312395778955 9.492001825545985
Na 13.601309672115596 19.411031830248486 21.091759971085878
Na 14.175188430694257 14.511614263623663 11.699882390801877
Na 20.250796508263896 15.261903584127289 14.348745353690813
Na 11.502076100285732 16.097157578521955 13.173625583933045
Na 11.173538187445056 14.128764193545603 7.490902322691627
Na 16.585683096227655 18.32618999185468 19.47088339024183
Na 15.123183032408063 17.125999965349116 13.925769109686465
Na 12.158594444916123 18.5337597145924 15.388343588642469
Na 18.026673610258616 16.24444369825007 11.857305303849515
Na 14.398714564008252 15.091093016373438 7.785689751329971
Na 13.830968859327964 20.248355996785023 17.77056897339203
Na 16.90368552849188 19.77773201619636 16.271724846707265
Na 11.922021655972486 16.8248567528843 9.787051102875289
Na 15.449372418416326 17.408574330027108 9.976016773926936
Na 13.005366050488359 19.309940152163392 11.990642176444535
Na 19.38574855058835 18.683375011610302 14.106679852155084
Na 14.401630099557423 21.442869087933182 14.417029827003006
Na 16.646326756497356 19.664991243048487 12.094218952285528
Na 18.017014415841377 22.087760014378674 14.005513514443157
