49
Energy = -51.3618583 eV
Na 17.286216217380034 10.546791840823857 11.22271186491935
Na 19.09517664968223 12.710800655584084 13.419557022089288
Na 18.76850269854568 13.502618574923025 10.047491696104506
Na 20.65938931409901 15.671992629025638 12.029849897625608
Na 17.211461099470064 11.219295102182645 7.726900588041765
Na 21.285251329502312 15.042841650212388 15.425751231357083
Na 17.518228293522625 9.83699371066238 14.552063240222358
Na 14.245478290576157 10.79037325518062 13.126335378282699
Na 17.379658353492612 16.658569970456934 10.840540716836566
Na 15.764792905436222 14.449518847000466 8.526331121410164
Na 19.541950475299256 12.541429567756564 16.96279589632629
Na 19.44182419785662 18.812423677380423 12.873258605193204
Na 15.618928442448773 13.847709182860955 12.02418983709661
Na 17.869729812726522 15.84051749492036 14.453690048175705
Na 20.1651119218148 18.25877013095635 16.241135254864275
Na 14.238915445828937 11.432244438914264 9.6169208169996
Na 18.892621451079968 15.73333098325489 18.24974283420429
Na 17.628300461393348 9.976115266868671 17.9750907012773
Na 14.336983520744173 9.823168672977367 16.348556708144315
Na 16.205478330092234 19.75939880287556 11.924777820717232
Na 14.155424399756843 17.29108407863527 9.806519120353189
Na 16.166129703690366 12.924666790940917 15.532545113798074
Na 12.381524811817407 14.427462449208038 9.057620517658975
Na 12.911687419641762 14.106086498003144 14.253830442517975
Na 11.491301246674151 12.178610052390486 11.516083594287883
Na 16.876042232758824 19.088858912780438 15.308307384240361
Na 12.930473565110903 20.133406869165373 11.133073784070772
Na 11.147146007992019 11.0906209915626 14.989821675868424
Na 16.77681536575942 13.283957699395895 19.07992970475069
Na 13.389589444530499 13.203404533603171 17.694138435939003
Na 14.784342642806369 10.490697758863412 19.750367569581048
Na 11.28606829985162 16.097293980840288 11.78929266214549
Na 17.59222239353703 18.99845207180625 18.682554192301883
Na 15.366319533825104 16.073659195999433 16.905095918396412
Na 11.42459811859353 10.380253563959412 18.303930340908618
Na 14.489793497430849 17.005238484222133 13.33538521565516
Na 10.720466544744857 19.196891047009114 13.44507985064423
Na 15.663950906476293 21.59802552234638 17.341369368916947
Na 13.69159261588138 20.26218300786531 14.809512455573174
Na 13.983136618013964 13.695496135189057 21.170065717498797
Na 9.156835109876146 13.505419194137415 13.45203470883571
Na 15.866892614604652 16.52107585877721 20.381558286566655
Na 10.128905598569075 14.250697758920408 16.75305635135899
Na 11.957319465911995 10.808777716657655 21.757826407337017
Na 10.504434134088894 13.458872145583882 20.029743207296374
Na 8.836180389359102 16.70612243362153 14.516063575414158
Na 12.291318550340637 16.28206707793761 19.418353757993692
Na 13.927051542356443 18.951549002060855 18.44470024672315
Na 12.001380996986894 17.226466122340888 16.036450061089756
