43
Energy = -46.22365561 eV
Na 11.960991500342164 12.471595252550205 7.159232994695002
Na 10.121690563495495 10.078716353505447 9.58969435691904
Na 15.631267724859333 13.172055070666039 8.287684285797969
Na 14.325298408585928 9.729382609865644 8.588902842790256
Na 12.732972416388327 15.771778586542263 9.052042834590095
Na 9.446696185343898 13.769570605015332 9.74058785107398
Na 13.520592132957542 19.63023224067757 9.687002291374828
Na 16.32868704125084 17.217063696426752 9.845530727177538
Na 12.76274735429832 12.307204053822597 10.275979964983184
Na 10.308176565268072 17.89277798604174 11.173644376344571
Na 18.44979620996933 13.771205279030916 10.796408423518548
Na 12.872721145759888 9.061100878603408 12.013137962425073
Na 7.005643577096739 11.396143769546214 11.808614776350566
Na 18.046111656993357 10.384609858156862 8.846115973196753
Na 15.179925153330082 14.508290147386814 11.600777179675731
Na 16.44349558338794 7.977622555714602 11.307263592693486
Na 13.770932751898279 17.515736729374616 12.308246992462513
Na 15.956376063426402 20.115827206342885 12.285907899348048
Na 11.541911671421335 14.907886920496615 12.371394754342656
Na 16.102626797886696 11.195252742104108 11.466543685330706
Na 12.447912873494326 20.394554494489654 13.208787761502792
Na 10.179330809966874 11.730945206553574 12.66535173701523
Na 13.546289851855828 12.210491867533406 13.535243320544968
Na 9.386465337539365 8.422387927316175 13.457424899333168
Na 8.10321385924362 14.65209023085478 13.235847932520315
Na 17.09644230469552 12.967129203671709 14.458565308660472
Na 15.489996891166706 9.483304527256719 14.774636634794753
Na 12.46463215378525 6.936208258494706 15.157418718093995
Na 14.081991905303964 15.313983127921304 14.898743240271413
Na 11.075118382927059 17.316930986007378 14.956675455847579
Na 17.17900683916439 16.637149428662504 13.681405769384874
Na 11.691446798391569 10.20911565636108 15.438134228664278
Na 10.805121415661233 13.802425630792534 15.675362855700637
Na 8.225435014954584 11.22211662503258 15.575920416619715
Na 14.116647425548408 12.430208248966599 16.791870251956585
Na 17.152350745661337 11.251776672430372 17.792291587880033
Na 16.461288654036043 15.212547017007143 17.39838718558332
Na 14.682546102048278 18.533678478419663 15.773470665240854
Na 10.027937096310717 8.068545435920962 17.418642420250613
Na 13.707745607529628 9.172862584812107 18.111882493449524
Na 11.09126230727458 11.680848345157747 18.583429184115317
Na 12.830759849066355 15.616647311971317 18.106054521878004
Na 14.549651484547768 12.761254406628897 20.000993859735683
