48
Energy = -51.55778717 eV
Na 13.31310197663948 13.561932201440111 7.201301010570713
Na 19.418949262200424 17.642052250513437 9.734734261326615
Na 16.379379578755863 11.937466804985549 9.3294031312435
Na 12.589437369507191 10.620980502314815 9.203894381129253
Na 16.323225515482438 15.757287584681377 9.29510399834874
Na 19.47772448977199 14.298196836772625 10.752912418940811
Na 10.139758661718327 13.546373810985857 9.40765888438979
Na 8.815957461815373 10.146499223469606 10.702204353548781
Na 12.545704627190402 16.900247930187113 9.352278512778357
Na 15.202307174101689 8.200188834468179 10.239680097891515
Na 6.265553331966846 10.377169360286624 13.065083945354049
Na 13.51156218066948 13.77639616454023 10.517726169948746
Na 18.27888042347595 10.716531823801159 13.123716157795362
Na 15.601458614141109 19.236254307615507 10.621456809977877
Na 17.7153340198082 17.264198294411006 12.721109415484825
Na 11.995562322866252 8.474148606691653 12.300467493753558
Na 12.080617928923084 19.162240013468484 12.73082965880523
Na 16.568785514766162 13.838073283057184 12.347652981454713
Na 10.765159830198607 15.633488615554437 12.431802906099586
Na 21.01386829977876 16.99437102290819 13.055725158342936
Na 8.050190787887681 13.405126991139259 12.769621299597915
Na 14.66765093200782 10.902668553294907 12.314665336480235
Na 14.321242063991027 16.62719178963764 12.34693180132285
Na 11.179245785649927 11.92389847748012 12.39158984710205
Na 9.398941353163348 10.131869992981867 14.658785239755117
Na 6.994250452246801 12.40349035587183 16.091911881975783
Na 19.267604117288254 11.670793431563112 17.074793124600866
Na 15.291833415611931 7.992753579986899 13.83134847740298
Na 13.451473842292007 13.715464062020594 14.026669468042282
Na 19.178530044435995 14.310294449202297 14.664426434010192
Na 15.178932690908262 19.158430610299025 14.850033555174946
Na 15.982924435799918 15.747848981548744 15.333907345043476
Na 12.408752006408152 16.76566598658178 15.412169461464133
Na 8.806153762494294 16.509233031472252 15.66567775786195
Na 10.384275968674519 13.500866057849054 15.724534489957495
Na 16.219567237901515 12.12102605098554 15.512971701014575
Na 18.709945215170112 17.58129957706046 16.307446466243007
Na 12.99419923371064 10.505696633633038 15.702167174773603
Na 17.217836438010202 8.958260479924396 16.521515771001724
Na 12.089469665590082 19.615909267305152 17.165339707888137
Na 13.691677045213913 13.981653250452153 17.386159945523328
Na 8.352269709964844 14.20981276728572 18.655209760037597
Na 14.868703676522415 17.439524914003275 18.22672917384324
Na 17.239012120708686 14.583557200069972 18.323961469067765
Na 11.313865078883797 16.246131172909447 18.678163108198984
Na 11.219095878086279 11.99978890359024 18.761557362776305
Na 15.256552203900343 11.27199107359133 18.856543628772865
Na 14.274401314746926 14.646579947153302 20.62135252492778
