41
Energy = -42.88121734 eV
Na 18.254662127285897 11.125158345656057 11.931584578846728
Na 18.18199778857035 11.967992024325417 8.598692093987774
Na 18.087121637678443 10.600770465523217 15.224615268860447
Na 18.56873604258193 13.988509912940547 14.191220393299202
Na 18.803443192263853 14.60509600431067 10.926832938402255
Na 15.25780532656755 10.584872815139331 10.02207492729644
Na 18.020261367911367 15.513563448238882 7.787025990855346
Na 18.041833262288794 9.441279140073629 18.386584193546923
Na 15.036645861338801 10.230249580297665 13.427757695433188
Na 18.828208506095937 13.115972343342284 17.47943011123155
Na 15.531174106694785 13.503152074654345 12.157641741110075
Na 18.94063408221123 16.609804210288406 16.461016396504224
Na 19.060771388758788 17.441111259249595 13.250365683986272
Na 15.1629837725783 13.780678008481376 8.456482447062882
Na 18.641539518589443 18.193226890120183 9.984772646597298
Na 14.826571998059176 9.731412953292972 16.97747874288373
Na 16.295688683349475 12.063988732089996 19.588398327187637
Na 15.50971890832637 13.075528339475255 15.86685707571327
Na 12.313326983403638 11.738845734482448 11.629492214294935
Na 15.842371085552312 16.385104546040175 14.37812811457725
Na 15.632577483965429 16.614644238478117 10.52215003429636
Na 16.41391732255515 15.323037509803724 18.54958573938353
Na 12.167713464214089 11.130692904425274 15.298479642447674
Na 12.669775184889133 14.511771261239614 13.972027083820905
Na 13.069117167017485 12.593100546711204 18.42398815882501
Na 12.50804216426829 14.937965829151178 10.140075765841338
Na 16.22321237249976 18.58255820250895 17.356778959236742
Na 16.118103314539468 19.41169966056857 12.62280671294133
Na 14.378133046132845 14.366224559322712 21.338745536977438
Na 13.421669395027527 16.100596715138952 16.97580951959919
Na 9.562971356081162 12.646538656786328 13.673462824952454
Na 12.949349050354034 17.76161288598138 12.368200834944949
Na 10.482962771325628 14.003752997028013 16.725202812673224
Na 14.242547174299926 17.634129112982436 20.10179736460288
Na 9.966176045086872 15.833478548274597 12.119718342386156
Na 11.341182127548448 15.402068021347393 19.87452177356091
Na 13.69163650844056 19.604868698906 15.305240212429268
Na 10.818132529908949 17.505494651025078 15.054670049895847
Na 7.872495641941519 15.512285614002192 14.972206710252113
Na 11.695502834187714 19.008465303779815 18.183024213538264
Na 8.811791265199748 16.989649280177655 18.015284049742107
