44
Energy = -46.0375606 eV
Na 19.938625343788505 12.26596967417875 12.265271139556498
Na 15.699602198568078 8.799173034056205 10.717147289640382
Na 17.781015263313396 9.818203160022522 13.43383402513678
Na 17.220201728553683 11.867027909592261 10.266337665985148
Na 21.365584204550014 14.114760236102592 14.711939284063941
Na 12.388300348720522 8.44540969541016 11.379748909525706
Na 18.940717107208517 12.035822431918655 16.014217442629423
Na 14.209989283963505 10.242408687913175 13.62789353056558
Na 18.340874439948017 15.584019522564242 12.408680092244403
Na 15.91109294093535 10.632455353436022 16.549695756070395
Na 13.669256369672013 11.512960596570306 9.934594975977483
Na 16.192297415848433 13.001341102361677 13.428909346370784
Na 19.890742519538584 14.786417296419813 17.99829329292686
Na 15.258236181513219 14.672886726378334 10.469679117512724
Na 20.204407223794135 17.226254009347485 15.161485194995004
Na 10.854994147252821 10.006701277405057 14.27861828959117
Na 16.679187598113394 13.296649680326878 18.622454421059857
Na 10.323916284799258 11.17366856057213 11.015883771235178
Na 12.631459675175632 9.864165472219105 17.069836526762096
Na 17.328672717328164 15.204792407985153 15.705715644302133
Na 13.361375597691291 12.360374788490097 19.322689940938666
Na 12.61287198742809 13.513107605301025 12.790825137526594
Na 11.370411575695481 14.039142418476594 9.293902182957229
Na 12.711809962686214 16.901147623140258 10.56596745656721
Na 15.853345774950899 18.056470621613542 11.376839287898916
Na 18.27650159291207 18.172582131276158 17.866434672813085
Na 17.719981681146344 16.04562016345496 20.55386495584621
Na 7.896553076656783 13.453896860158109 10.348873067920474
Na 17.19268021612328 18.512735655071364 14.530839406436254
Na 10.533227169589221 12.736773767024596 16.97963624863424
Na 9.014764445566296 12.943005606981318 13.796271771833338
Na 14.353923017088425 15.2257675246572 20.917740176183106
Na 15.020456750531707 16.6156664436335 17.741614831906098
Na 14.234861226547519 16.49135665854487 14.038328260534612
Na 9.599733040384933 15.84587031981546 11.951054045109222
Na 13.893650103972526 13.608880754582493 16.082248865246562
Na 13.00403411491636 20.265445143358264 10.818847818093012
Na 10.995428430592542 15.613033644326611 15.133181677515353
Na 15.691220442335643 18.81864046794245 20.37654976886728
Na 14.310807573563778 20.225538119516035 13.983391391826386
Na 15.379114605161645 20.19018276381242 17.197912107406392
Na 11.697147673874664 15.614330011880215 18.56711262730189
Na 11.151459705029675 18.607033442088923 13.324131056522633
Na 12.278670625725464 18.46691128800321 16.601120640917532
