48
Energy = -51.79868801 eV
Na 13.790917598629933 14.882055503770937 7.940786028164992
Na 10.179850993346925 13.648539470479268 7.425344696333754
Na 13.209243988929256 11.422608749962585 7.507434920357839
Na 6.731378787306545 11.973419699363221 8.134978492229864
Na 16.72436613989769 12.592393510682637 8.197138643807673
Na 9.719741876229197 10.55111413511558 9.24904507809442
Na 10.973269437369678 16.554997806724376 9.691083987161106
Na 15.995521908986818 8.990421868332682 7.80395681313868
Na 15.627026889101609 14.403554668391823 11.006936947996834
Na 12.687305073856965 8.394106784422432 9.322701104842011
Na 14.635154372074597 17.74771696227621 10.374674248301428
Na 7.095519916696743 10.88387749537005 11.596325218600876
Na 12.04840385910276 13.153563495635286 10.409071511947007
Na 14.917526536601883 10.822819573465038 10.688122247511826
Na 18.436294780519766 10.149054431531141 10.265194112653479
Na 8.983896994873309 7.752123860395809 11.817270173638803
Na 19.095131624478622 13.699364906626288 10.830809029200047
Na 8.231097613338868 14.115230030058212 10.44564051094023
Na 15.935161993857047 7.51549488977475 11.10764537720102
Na 11.46264211577637 10.047090727502223 12.321716976531063
Na 17.88620887004782 17.04097469544465 12.214228017052665
Na 12.816561082337063 15.936064348197712 12.816507722108348
Na 11.806030094160414 19.214828071892235 12.265563266328321
Na 12.65396424923289 6.60520524728801 12.23433799468595
Na 9.184120570186687 16.676687305124197 12.76023737429067
Na 17.30750698296584 11.850022554030682 13.343903477501618
Na 13.80221672384728 12.611438325318947 13.448723457924121
Na 19.66654844352813 14.748465475320065 14.247571364268158
Na 15.15304142969922 18.511308415542466 14.045793400905815
Na 10.184111211750226 13.262250577175577 13.489775469921483
Na 16.06355121988819 15.126498018928327 14.566544295125885
Na 6.973853854790867 13.732489716031797 14.096363278824874
Na 14.584470221192342 9.182599141232897 14.132562345084816
Na 8.483980729050844 10.19392484540683 14.723724135318019
Na 18.222316419867898 17.68276348580114 15.7421648527278
Na 12.018242690080672 17.99992963787403 15.774496131303776
Na 11.873776377953867 11.046965312390144 15.793564309504355
Na 12.325686682120265 14.56028401279148 16.054216367722507
Na 9.210927486456308 12.906476470391388 17.209198774170968
Na 15.301346578716545 12.258575020097386 16.685303192876734
Na 11.05566516690611 7.7364669702300555 15.263219762591838
Na 8.908208203648849 16.137705436487018 16.225863325580505
Na 18.077625688600822 14.606767760948799 17.506019168445725
Na 14.885401764080203 16.357101143146547 17.66531398935023
Na 10.14475172291992 9.55179506529446 18.297069359993895
Na 12.429729293591791 12.449342523806877 18.9926541170695
Na 13.68059762817414 9.019163867412692 17.85606981531635
Na 11.306436687032544 16.180688560315364 18.89946568915316
