46
Energy = -49.14123871 eV
Na 8.78010002626982 12.326956185458883 18.23686134448304
Na 12.432141059601866 12.301159217676096 19.746667980387894
Na 11.135480368535527 14.469689421683182 17.238582120380556
Na 8.645839510665496 14.114894448117225 14.533621374340598
Na 8.754009343209054 11.045726749314431 11.661193695530095
Na 8.445870004713713 10.488289069291843 15.160988817556087
Na 11.56213321475989 10.465373458706116 16.860561215494762
Na 9.824627372157224 17.472680606309055 15.710327344732205
Na 7.261450512931622 14.185193011899234 11.273558616187103
Na 15.020123322586809 14.98345637460889 19.404720750635597
Na 15.600277544396974 11.76913455457611 21.142159835006424
Na 13.572600000047657 17.13005975528387 16.63050320945509
Na 11.436742098297678 12.094331602536233 13.852588171768362
Na 9.505752457975733 17.049991481462026 11.994597865680698
Na 12.11797527438693 15.396756255197792 13.920307180432355
Na 14.150068214783905 13.200748541584996 16.202275609180216
Na 11.231821743674267 8.67666327083981 13.538656726150606
Na 14.454225352098021 10.150029021374376 14.311524004528424
Na 12.347573047315125 10.67181585403331 10.55254350562586
Na 14.94389205281732 10.08664021728719 18.081867103831392
Na 16.571977331018953 18.369612917032985 18.41977306676194
Na 12.43921456485632 18.939559684798354 13.523044832678343
Na 10.7454113888679 13.88514613340193 10.70219438068912
Na 14.347111335798772 13.16847888231703 11.979579231520407
Na 12.960378769599116 16.533319435228147 10.757595388432314
Na 17.37281159604391 12.60701621846001 18.123529398495194
Na 14.401077715882078 7.932006882559347 11.437890903414758
Na 11.477818558269187 19.54502388305335 10.009866608218141
Na 16.785266669640507 15.660543372276184 16.339055274371926
Na 18.992371746083805 15.844313250620912 19.025036128445947
Na 17.88875278931763 10.006588062256892 15.702156442168086
Na 16.973219886881292 12.911924405478473 14.168666914287737
Na 14.146340166964617 13.922813176045711 8.57039745468496
Na 15.971461262254607 19.376545413557327 14.884510831934767
Na 15.498450722947007 16.383939228123555 13.23814991313928
Na 17.28597483706512 9.847012008274213 12.063737550327433
Na 19.995875658319502 14.071108017402523 16.079464159528573
Na 15.603025796613547 10.51067633679943 9.058361810649084
Na 13.833225894606699 17.809912291757616 7.8189951307884105
Na 17.607901140506826 13.086764135132311 10.484986734564881
Na 19.318313283262967 17.843247493463014 15.777342233498452
Na 14.974970964182443 19.53869835157939 11.102474237799102
Na 20.073474653688795 11.877546871966873 13.11437108295243
Na 18.954343601197863 15.518360732652514 12.837322007022232
Na 18.30301394548182 18.8973193605799 12.295773761237182
Na 16.582779038425013 16.471856391072095 9.944065315330134
