45
Energy = -48.44852075 eV
Na 7.42837153659466 14.367125829258244 12.295871149921606
Na 17.247838204682104 11.625929194452707 9.957838312514623
Na 18.479478869529927 12.670199961496365 15.649014910744356
Na 11.163351797096977 7.4294121258712424 8.823387575351724
Na 16.190897673852014 9.588406426462873 15.626389696398245
Na 9.471123394377974 13.044840065148653 15.118899927855233
Na 11.387882310907958 19.100288589558847 12.318213043613428
Na 7.734419474800807 18.358331042936797 12.69501636382043
Na 10.430074667617493 16.094262579581127 17.34936855916146
Na 15.893465302995363 15.006747660167289 9.761411178029341
Na 12.960626294552085 11.244065144568765 14.386009135509248
Na 7.231854721215495 16.308205931704627 15.607010491931026
Na 14.434256831040877 9.18483985274368 8.709903530550683
Na 13.006073410029376 14.536412950473991 15.203047232779918
Na 16.907882072667107 6.687635768046848 13.436209001843096
Na 10.11201965104098 9.40287470501108 14.675458588826238
Na 15.716372627743954 17.253771325871785 12.582421577424698
Na 16.410607075037376 15.65893853335693 15.681660074377964
Na 12.109989324402807 19.09788619072323 18.42209556466182
Na 15.237141996914012 12.546614233481161 17.251795889548188
Na 13.880647619986615 15.877887211420298 18.434094740404667
Na 8.55069234380579 10.344817221413345 11.192667586812764
Na 13.775955719572679 12.27065860030305 10.603678633580737
Na 13.203979710326896 17.937900546536767 15.295773289970246
Na 11.214598347304953 11.073279512194452 8.371528357742067
Na 15.353930398765137 9.48619498959469 12.19810257855868
Na 17.583386825686727 7.85811171823369 10.138713241051642
Na 9.767393395463461 16.473679711725033 10.269940178584863
Na 11.953594530159291 9.45392457837506 11.476421960578227
Na 8.482267083234778 13.313517253132092 8.895043347710555
Na 9.684265884578377 19.239819452390858 15.651249429899792
Na 14.796046584191304 12.566172318512685 7.274911153077264
Na 18.667443121283775 10.08417988872878 12.944569919865486
Na 10.622076114745633 12.984604324663435 11.776731863700407
Na 18.551260970997518 14.56298515227947 12.458624817054798
Na 12.952814410241638 9.387440532698538 17.368350195350036
Na 13.31973902517263 7.447885473778034 14.319109926014834
Na 13.393830399691112 17.83869168772694 9.510447142709738
Na 10.219907562456624 6.670856345855772 12.23191966874843
Na 15.811739363671473 12.923541842307957 13.417620399662095
Na 10.147075580515033 16.200351638661026 13.812438895512035
Na 12.007700605019135 14.5704581993569 8.408744391278136
Na 14.138298179619175 6.359595553806268 10.942438613459771
Na 11.763880087155409 12.733843787833328 17.882873214588436
Na 12.957835756164723 15.486901204463974 11.927071506130753
