41
Energy = -43.98588047 eV
Na 12.60946159056795 15.334434376249307 6.925134240092449
Na 16.29544851445915 14.54724814581456 7.27780994390683
Na 13.672821235445436 11.74276037423175 7.4378641482312355
Na 14.537997342830815 17.71826384742039 9.262278651489462
Na 10.598591729166175 13.072006954292192 9.228465776521064
Na 14.133251216927846 14.379082920403537 9.785837429245033
Na 10.86091758348386 9.323328603763379 9.385308835879401
Na 14.623652399829448 8.475894716534212 9.433296954951208
Na 16.830808611877362 11.796902919946252 9.828588506732194
Na 11.20246127816988 16.662637898144542 10.221657832993454
Na 7.630560559714635 10.862043592010219 10.587144456116869
Na 17.461189199655685 15.256852733342107 10.886604511966244
Na 13.395183697211717 11.182384256456913 10.888591342577167
Na 12.457772757023715 19.463877501225458 12.409690285504318
Na 8.508260929502852 14.384872725522337 12.31204243268851
Na 12.006826377232146 14.011942377205056 12.371475821657897
Na 14.501786873388363 16.675799170585407 12.615898729765439
Na 10.246775758437797 11.105953612838109 12.494763873050584
Na 15.469707221684974 13.197593981871915 12.822971754987082
Na 8.7624605757291 8.04385319002096 12.834423010502336
Na 12.570522511801942 8.15073146022965 12.541970854051783
Na 16.054881603194605 9.622043351236329 12.93038261252383
Na 10.886992348436973 16.727973387878347 13.953503862157438
Na 18.66516779354183 12.259567207670973 13.434386526173634
Na 10.122238350763332 13.273659375759927 15.49823147635649
Na 11.200250962641865 6.37851127660178 15.148346122628881
Na 18.216843421167855 9.494122967112798 15.901389487104055
Na 17.02970274774614 15.439838392268864 14.95736580577947
Na 8.024403926862377 16.021350948236382 15.843586351426787
Na 13.52774046296906 14.57813930440554 15.404931367735799
Na 13.830503490766715 17.990220150795775 15.927225890770465
Na 7.309930817212011 11.37389937253132 14.30906438591807
Na 13.006140690569467 11.216932095716531 14.423712918289997
Na 14.218967260373661 8.542925947841852 16.16562267827255
Na 10.28409021134692 9.671986062640153 15.900994566202009
Na 18.684051780136663 12.993374289207308 17.212200107365355
Na 15.800860674068343 11.86978263659423 16.19539372241506
Na 10.258239275369654 19.07883197298739 16.20058262467091
Na 11.376833598464769 15.903723938816444 17.750500837301676
Na 15.308150360487277 14.88435818481894 18.241369425412962
Na 12.6193380504732 12.09207956950315 17.8511756293185
