42
Energy = -45.18549514 eV
Na 10.220672637158373 11.863815933938675 7.108345886370076
Na 12.385348336489294 15.143662654138346 7.338075760049087
Na 8.746587425862684 15.642465769741206 7.61853255170776
Na 12.759824588536308 8.456717987890853 8.142175314584025
Na 13.476251231123177 11.930471196078237 8.830394867850758
Na 16.294333921270553 14.19960319405632 8.66126385848077
Na 14.523353584130621 17.82163226562071 8.814246955352898
Na 7.277994530167244 12.366652514267521 9.86142204649501
Na 10.243763428010952 10.206213056754311 10.212283073746548
Na 10.484568892966516 13.877554733129802 9.960734858796148
Na 10.890811854086335 17.355592249528208 9.968976944374248
Na 16.278078688949574 9.618768180842913 9.174871406967714
Na 11.160952666245054 6.881249573550987 11.198744584269019
Na 13.740949163573504 15.08860101319789 10.818133267329122
Na 13.614573991249236 9.318226945755773 11.384451731179645
Na 16.734512938108 16.777308181885672 11.442514618567126
Na 14.88363843365848 6.354376355356507 10.528629383972499
Na 7.858583309452228 15.613261389491804 11.703107916310353
Na 12.456557453280576 12.305686765098526 12.209047925021808
Na 16.09761749889659 12.207772010180765 11.756404783749268
Na 13.438300739233455 18.204374540109107 12.323118373112735
Na 16.683462424015726 8.638790677283195 13.019896861595136
Na 10.785124509049842 9.380184791627626 13.747914891766486
Na 13.507830962857609 7.057878987266928 14.186737745337334
Na 9.144365255765406 12.534536492270762 12.884647890718432
Na 7.489878354661087 9.516099112971121 12.521868316389199
Na 11.186368399839385 15.62789473914596 13.326826493269007
Na 14.117918913873142 10.521314271379756 14.618700777617866
Na 18.016912555949066 14.605386901318727 13.915061114141757
Na 14.54826587158693 14.214738562722305 14.266806491357015
Na 8.595366062893477 14.706515616522948 15.701781096362607
Na 11.461337152956723 12.629391517212248 15.466155970205154
Na 5.907764442164462 12.899770916706556 13.595510745037744
Na 15.748289667565139 17.43392468418368 14.882301732165114
Na 17.213747404318855 11.620081009779872 15.492050080378208
Na 11.747454364253786 9.412004689427636 17.122119827115256
Na 8.295501682067954 11.016714558827761 15.980640010829545
Na 15.72056281043544 8.794120381848977 17.112241760225658
Na 12.56352432235467 15.672974865590222 16.818801055008944
Na 14.129650882561254 12.136099054946916 17.816578614080466
Na 16.496011510828716 14.860369882581264 17.161478041809
Na 10.412755033403844 12.826569671621959 18.645772272153653
