48
Energy = -51.95954755 eV
Na 14.337745183076924 17.37675941508843 16.052924236867042
Na 17.973183538243585 16.914539088014692 15.314006444142594
Na 16.819248250277752 17.550529772491878 18.986273900552664
Na 10.614776306060552 16.446182236553064 16.56642450619055
Na 9.20848916849177 10.928740691374212 14.99739544608816
Na 12.438507948360517 10.285312270277146 16.567627830126536
Na 10.540287021620493 13.975805608487999 14.097668001424532
Na 9.509296590865002 18.172023498694966 10.11729471034348
Na 7.972900039950004 9.31019992940843 11.681943253483764
Na 11.625988790834077 12.200396240838018 8.065391885703665
Na 8.459928948533907 16.62062267841941 13.326282781911216
Na 13.565083233872103 15.718485465847285 19.315982173961462
Na 18.3103843752041 15.137573447468283 11.854379188030553
Na 15.619671179553198 12.387170034355279 8.457998084968487
Na 16.93654252752095 14.304667312223424 20.694549591871795
Na 9.58000156182412 15.301813549477448 7.31182516952194
Na 10.473889619966208 11.606290696668307 11.482050430427433
Na 12.981026110193556 17.692092764314964 9.687563946446707
Na 7.4443814705128935 13.12919361294737 12.52945623996873
Na 18.47303941346948 11.787653748051824 18.220491350647876
Na 10.359433521547146 14.905648332907438 10.589716413060893
Na 15.450440803773914 14.634569999665425 13.92491822287271
Na 16.361984902240142 14.546320919800342 17.391371551368067
Na 13.106579643898767 13.911349070473609 16.35894775029402
Na 16.500119673896183 8.843995760865782 9.914273876735386
Na 12.140678668555505 16.86049263992844 13.17228635080758
Na 19.577028321941192 15.307850731754161 18.24509481167837
Na 13.718758027687443 14.141012104782492 10.88030668608838
Na 13.650348156474227 9.108716081973379 7.4082416765695065
Na 13.283828998403537 6.9639264151849565 10.390741216136455
Na 18.696506597063653 9.92905417232152 14.75800451448289
Na 6.9585151601908 15.62560292115004 9.860968135712318
Na 14.32444415964371 12.109695187121861 19.19332688748857
Na 9.856829773353923 6.130221093654164 11.196527318593578
Na 16.193044040328562 16.073297494914677 9.073559993861782
Na 13.57070511045515 10.454000537372941 10.517247112211427
Na 13.206197171476257 15.141699819058115 7.383979616733591
Na 11.429461210934406 8.654802360513928 13.093591390413522
Na 18.892855005985002 13.421671828959873 15.019186640839624
Na 10.447193586461001 12.939345219986862 18.210659697342507
Na 15.810901179123771 11.395438156296153 15.835859572371419
Na 10.424616607468245 8.915659131253715 9.049026516042936
Na 16.704199047412853 11.823368849010324 12.089101611480823
Na 7.673864052268948 14.137303644191501 16.111849588594087
Na 15.120414531762076 8.76868917324932 13.334269605260669
Na 8.092621923654365 12.178152097997625 8.991834851332223
Na 15.587315098566124 17.64734443928493 12.344291747258502
Na 13.209818045885473 11.817794054207756 13.566361770573133
