46
Energy = -49.36977517 eV
Na 9.46227242946957 13.790936024825585 6.799958392531112
Na 12.599990800818658 15.399361261246595 7.699922117213114
Na 9.44521635830397 17.312896012262893 7.66152261985438
Na 10.144472043719189 9.970479635942125 7.324952971390272
Na 15.391259991430381 13.037591374929825 7.8414479456430675
Na 17.670029248448422 10.101413001772281 8.8512593593186
Na 11.691297128419176 12.165094694474602 9.384922585838238
Na 14.159012436848093 9.781991590917997 8.52674096345095
Na 18.65790071450509 13.457693232369518 9.716897512776557
Na 6.745384526909909 15.365044002308593 9.127272185273688
Na 8.004157998711378 11.851649103256134 9.298277949020122
Na 7.9395430591967076 8.31701317966513 9.9717107731835
Na 9.895423200319655 15.00198932580177 10.284084333902777
Na 11.564833832965757 8.082410596106833 10.341379921142682
Na 12.320370653808457 17.898696378621946 10.197383463972326
Na 13.41926080962708 14.608644313848313 11.14113099313002
Na 15.877614857688707 12.102309944865665 11.15229644853647
Na 9.737049284215013 10.302929656539703 12.381473526636666
Na 15.946437728038624 16.116690318418048 9.614722532868686
Na 8.624104310838035 17.988671151701332 11.234632645077337
Na 15.564417059569319 8.429926155965857 11.508608159391274
Na 13.089738289338198 10.883433690683011 12.24085340273796
Na 7.281442214136955 13.169524068348357 12.318992796282165
Na 15.396347983310307 9.967428356699891 14.849660883783216
Na 17.430867406090368 14.624619552071662 12.919762955030178
Na 14.893094734525858 17.240880270107645 13.068531162722977
Na 18.446522403643346 10.741030773916865 13.034539318181103
Na 12.51483651462804 7.842465020648668 13.847703612595916
Na 9.200354831431765 6.7795842831742945 12.943341383930493
Na 6.773496377492166 9.471832981929627 13.592947167480556
Na 14.281587564677402 13.821693086561044 14.494135848591183
Na 8.357839580885344 15.759205984970148 14.37486166964895
Na 10.838686823217992 13.454115811451697 13.235164698288049
Na 11.428401484946214 16.965197182744813 13.469916092832772
Na 9.702338644139477 8.688841749190031 15.981936956222581
Na 12.219162739367635 11.123654446787812 15.6230568344362
Na 17.30873258137039 12.552975953102255 16.160584593164604
Na 13.279006309501693 17.176842482532948 16.534495268924555
Na 18.365544693299707 9.195276291985268 16.41980208312979
Na 16.529109117091703 16.045166792489326 16.15315020552853
Na 13.172352693424482 8.164135213319964 17.434546306117255
Na 8.613403318301254 12.016002017503453 15.563805831938126
Na 11.058117496411088 14.418137757745935 16.701722969477284
Na 14.298140031769123 13.691396983079217 18.09513252843258
Na 11.642380746745387 11.155908601841645 18.86296921478639
Na 15.48926683869233 10.438039583563608 18.488608707875585
