45
Energy = -47.87166214 eV
Na 16.193806853568322 8.311406243792401 12.117513606868153
Na 8.46006427392487 16.049788488597397 14.148468559230905
Na 9.095363085256444 16.217313533004468 10.633894566681542
Na 11.795815138655989 9.267608098408852 12.752736165951513
Na 15.779366682915242 17.429493484791546 12.635849897958977
Na 10.432973669424207 7.454478263786258 9.878358728894142
Na 11.875049775919855 16.924420853049234 12.853105275916192
Na 13.801956474727254 17.780824172179855 9.8552115727952
Na 11.976541646075235 16.090532697184326 18.75542869218112
Na 15.657320351869924 11.387714192210932 14.874527581441322
Na 17.11867413015293 10.234746973627242 9.226132287059151
Na 17.082558156395987 14.656250455634256 14.637513047209788
Na 13.918834198902378 8.44952196262377 9.467627818787573
Na 8.735049935891379 10.129849548800257 14.6145283118666
Na 14.111966904915985 17.006811556564873 15.853853627180998
Na 8.06193373467909 15.170908384071362 7.068050241297159
Na 8.682856767247806 10.175869704296767 7.605078534080049
Na 17.266276282732306 17.24684760628199 9.144362439566557
Na 8.326842509936442 13.141192117796074 16.36521652998133
Na 7.418946899813233 7.215832523924852 16.173756683481116
Na 6.936446242571287 13.029290927144771 12.889741247653978
Na 12.305730770119458 14.371859010540566 10.15209887955395
Na 14.356063538014041 8.206677926757663 15.07322245693879
Na 11.350411418144054 10.921501521710042 9.713872176130536
Na 8.485120609853725 9.946199016139643 18.151484586807513
Na 17.97534985423017 11.976263695867477 12.177005296565683
Na 11.281965020897953 14.81967360725983 15.743727747886279
Na 13.830665398473094 14.131418392732932 13.568581276142357
Na 11.038868639601692 13.193379722440051 6.96844098071394
Na 14.606206870092965 15.45626175594812 7.3404631432446825
Na 8.138562970787344 9.807747869244055 11.204998466614443
Na 12.165008401483963 11.284316080000982 15.537218751823458
Na 9.343870723865335 6.62878418573336 13.227611378301162
Na 13.05236341300051 6.120169174436493 12.324943711113177
Na 8.54386398603722 12.986101106461005 9.683906519184923
Na 17.682098325993305 13.72119202744109 7.90118367000974
Na 11.140288589016397 16.75782643817082 7.712738938229568
Na 10.44256440303403 12.937921630391552 12.803685160670986
Na 14.354346378172828 11.964109260068923 8.016068599381821
Na 18.366251140483705 9.31782353822493 14.639375424801372
Na 14.309854665911226 13.677805030564004 17.26061970142268
Na 15.860908629765964 14.465472181023454 10.695965860503504
Na 11.082540305568006 12.497742150621365 18.609285754167505
Na 14.33742514133276 11.350636460930632 11.563576306156826
Na 10.960347032158728 7.827736371132601 16.11828973916498
