45
Energy = -48.49060199 eV
Na 12.070956742281322 6.5840848423967415 12.035598141955502
Na 13.020902482310664 9.614511299572586 17.8829740655048
Na 18.849403737830077 10.997760404142547 17.352124892724802
Na 10.510470411809784 8.274699559226798 15.117174618571607
Na 10.128074172936346 14.789768617871793 9.957850868723526
Na 7.487040757285494 14.034283390389726 15.12485752710128
Na 16.632860264436342 14.330653440456292 17.351509928573915
Na 11.044729001559183 18.070862572389778 10.39352809279083
Na 12.701345953900576 12.275204029429315 10.3298616026262
Na 9.904852177147145 16.522198887424903 6.919911725029598
Na 18.414951604347667 14.459555287799557 11.193539239911392
Na 14.306294752267716 18.821439339039426 11.880495025037638
Na 17.493428108146908 9.417442821099778 14.067460363278753
Na 8.10021888769246 10.833383130522677 13.552927710324372
Na 15.63725293272948 11.338328154543232 16.163206487634874
Na 15.453399900339772 12.630140948418727 12.618863860686591
Na 13.13924948320656 15.764362883275584 8.229310650174826
Na 13.107954066517344 13.234274258982877 18.29314376547392
Na 10.53131341006232 15.395271969246297 16.476932066354106
Na 14.565901642102704 9.26036090535198 11.486992484376932
Na 7.055914422630328 14.000061987967504 11.464732331904786
Na 14.164137747505798 7.9341508673650285 14.803763926768317
Na 17.65779333250453 10.903027872679 10.558525938334354
Na 8.673551059410219 7.798221566902637 11.380358831889728
Na 16.304810958501022 16.122687500243796 13.811825949093928
Na 16.529117403661175 8.263092408840924 17.552182596832846
Na 12.07033330838205 17.625516974976353 14.234538522491869
Na 11.133895501828801 9.882531054044783 12.160914013074414
Na 11.548956742355205 8.865381572508854 8.9523060202433
Na 7.575660057623672 13.9623108210367 7.730837915399625
Na 15.963999365062975 11.265847723534817 19.60451636476188
Na 14.63250402194015 10.380107455087792 8.003380832578735
Na 10.133104817603815 11.747752577425267 16.599828095676322
Na 8.888660146140488 16.73713951908789 13.11298147429052
Na 10.540478744131383 13.48112084552672 13.18541472594571
Na 15.814834061858171 13.529480481522215 8.869948103242999
Na 18.42545331386414 12.945301475108941 14.386769708500195
Na 16.242465732873857 16.827677699969612 9.819473292947185
Na 13.354277649015321 15.44167797555429 11.697330535958391
Na 7.553986856653724 17.133178342801727 9.575102655227276
Na 13.9625466413839 16.832076469917375 17.33390844904839
Na 12.826151943644186 11.112040461676598 14.528725187585353
Na 11.162759987239383 12.792678590271459 7.170535258638419
Na 9.002288859863416 11.369090795590106 9.916621075512213
Na 13.631464889568704 14.349008272933629 15.066963131353333
