45
Energy = -48.61865126 eV
Na 8.880411073684535 16.2536604038552 16.974447051965836
Na 16.874100833355246 13.75022729039542 16.19143213024924
Na 10.897925457307679 12.95172082646567 13.050177753910562
Na 8.162152141571452 12.097368578826414 11.031609629792333
Na 8.702766442116943 18.01875064541726 13.516554890597838
Na 13.932234653502144 13.353012430456092 14.729304664670948
Na 14.872054405219057 16.895330965910503 14.248755225616584
Na 11.371735495730661 16.122262041619397 14.548041175886633
Na 10.205497719566383 6.414434586553714 11.27752103841798
Na 15.414560402145423 17.295800085404952 10.292577177405182
Na 10.717074617773912 9.694920751962174 12.071694296476226
Na 12.083231650905537 10.378770624073498 15.108606357401941
Na 15.056209452463246 10.515094927853285 8.199101361325612
Na 18.271384439289104 15.40075449180506 9.032463692851264
Na 13.823346828545379 11.664076312182116 17.852883480227305
Na 17.928853002434018 11.820607124488197 10.005343293476628
Na 12.247621647262221 15.96224734962644 8.458644819530214
Na 8.493626815681989 11.004542117339454 14.61919085891066
Na 12.875467338292115 8.309491924976486 9.738544135171084
Na 9.8152274715098 7.563887926110094 14.978266491526856
Na 9.781978124175126 9.77774091685941 17.902270295593713
Na 7.24142982248045 12.548649414804233 17.48346024202711
Na 18.14939970986595 11.406324645208747 13.580834409885522
Na 14.253776284859892 11.232535269761788 11.978855034238217
Na 7.91302589753802 14.48242508553476 14.069597484081184
Na 15.535755189064044 9.824703890340958 15.232566464239875
Na 13.206758800443469 14.996059616953062 11.741832751588381
Na 15.175276408222263 13.848508886750537 9.221659005373892
Na 12.835740411086505 7.8894835457119 17.24588853436875
Na 11.833257548969247 12.160150723639235 9.641450858988767
Na 11.998502674764437 18.27668172013336 11.712479766771512
Na 13.300318497477587 7.565165685122319 13.327001902154546
Na 11.71247775050745 10.184672866191844 6.691704390667698
Na 15.577646576590137 16.27594231411996 6.719643583174442
Na 9.193014222140459 9.285810474021218 9.07669526618776
Na 13.501259977094028 15.416004487409001 17.42210241179421
Na 16.44992742263793 8.728972068173565 11.558403381034324
Na 9.573284873965667 13.236436167475539 7.45403410465167
Na 13.362351761997827 13.307101116972643 6.23410081598248
Na 16.80276784690785 14.447604009496692 12.440276607768137
Na 17.163887641318738 13.060360173543959 6.504909939787387
Na 9.617634457913802 15.491259308426338 10.93272419362104
Na 7.356345837754578 8.541156349175212 12.399975141350163
Na 10.656480324650257 13.232467502172177 16.65842973281312
Na 6.6411182933061035 8.775720600769299 16.302842400533823
