46
Energy = -49.31608052 eV
Na 20.48371252146392 12.205627705014324 15.727038033910471
Na 21.39871338941737 14.26759029367111 12.905014649872832
Na 17.593264630660745 18.22487881385443 14.672815008109856
Na 19.055897183084536 20.98519103497566 13.33893698266402
Na 20.464140507238017 17.62200155721664 12.634385438595231
Na 18.323328956430277 10.585872743220476 18.287611739035352
Na 19.687198484362096 15.640992931735243 15.817901710937642
Na 18.539215474588246 9.161804010154277 14.88595707042534
Na 18.942427916298914 11.68647691564846 12.243894744252335
Na 19.28368493672728 15.024766142787453 9.951956024821344
Na 17.1263651434636 21.140114946611348 16.419783273553104
Na 17.409182494928828 17.707505125620834 18.235844758358574
Na 17.726968417192257 14.040777987541626 18.509006161075877
Na 17.599606320924202 14.99138318842805 12.838911181023807
Na 12.002822227179585 10.3235166636187 18.357364164646263
Na 15.06384315627623 20.385355239161047 13.3594438378713
Na 17.29802387639605 18.534031127726006 11.148972175645747
Na 17.042108829185114 12.343491667123311 15.26494036407396
Na 15.76378518205575 15.94369941004355 9.520825985227201
Na 15.62734221292453 10.117156709624947 12.926882936712932
Na 15.314211185471175 9.545019416957919 16.728508060647258
Na 15.93499509296412 15.481565983860513 15.913105486730862
Na 15.138941289473028 11.883565511812948 19.67721523250493
Na 13.201339711515011 18.39324005172825 10.490952364179327
Na 14.560953281413106 16.879059655005044 13.023372013888574
Na 14.214897794457068 15.592217403402714 18.968274083363198
Na 14.40258553881395 18.733494086853323 16.612118544408847
Na 16.001897538790498 12.568630591389912 10.326997975110434
Na 13.76763972631084 12.749873256947211 16.617645187443568
Na 12.426302131977161 10.121509350550014 14.676922725246685
Na 13.960478281555954 13.390455998958895 13.200620956110477
Na 11.710584092440635 18.94009493676333 14.246701946476819
Na 12.425812925057741 15.777909677261556 15.634563019047416
Na 12.674552468245675 14.42298364295719 9.918264337844498
Na 12.56775990185063 10.96580117881712 11.038010196384167
Na 10.61703709028058 13.821314072855712 18.044462926158484
Na 11.33043254745825 17.814832124515643 18.2454504498309
Na 10.324156848395084 13.029661396584334 14.435837099210522
Na 9.590196521867481 9.550116075943327 12.733748209213147
Na 7.256012603210768 13.547754235956216 16.54922427340753
Na 10.851526028146067 16.010708331614367 12.39694823042728
Na 9.019408386843406 10.359400273709717 16.353891968254256
Na 9.064274174939419 16.578177931162223 15.765842276202303
Na 9.435456577959869 12.779112731953683 11.011558826721977
Na 6.885747513676215 11.476351561296045 13.682472498946673
Na 7.41378897776949 14.883056074143212 13.176507517897925
