46
Energy = -49.54463737 eV
Na 14.667647305392052 12.482432862885533 6.5824468557059586
Na 12.779018131887623 15.48461592008201 7.962627275897321
Na 16.394742517146675 15.260482395415154 8.612164089429973
Na 11.311367179730889 11.37055152769991 8.252173368939353
Na 17.254190865463574 11.296692597338184 9.433106065255657
Na 10.941639543399093 7.700005870845364 9.828449192849327
Na 14.268150597617408 9.128001918942228 9.144800892149487
Na 14.716369963251282 18.57112299343967 9.113819387864654
Na 14.102507674843974 12.763247142906016 9.810258932471173
Na 8.714493047480596 10.398497177993203 11.169708206906334
Na 10.664950581281898 14.211368391241392 10.893459984735266
Na 17.042102685290786 7.759699790989143 11.311346414706843
Na 16.99139027075377 13.787640762668298 12.00562431270232
Na 17.288135497986772 17.453997376373557 11.927981178627435
Na 11.928377470189764 10.575835554973168 11.635551889625482
Na 15.31014328361136 10.454378983243481 12.342487943164832
Na 11.347314821743973 18.108997048249968 10.938028545997282
Na 14.217509809776956 19.18199536955564 13.1836841385958
Na 14.150182124435556 16.081080660717262 11.188428129336836
Na 7.178204351972905 13.052939266148307 12.836284752600319
Na 10.565151710846889 7.8322397976184925 13.422514043154672
Na 13.763429947038798 7.217926919614448 12.260804196678132
Na 13.503398915757819 13.36194380237021 13.054146505997192
Na 8.646784399431025 16.362354551843254 13.602355944132738
Na 12.022124784501225 16.407358307210828 13.96586811456166
Na 18.5177558919581 10.749555379970875 13.621341115988464
Na 10.323613847052798 13.193114253834379 14.25059119798602
Na 15.481617924318108 15.927437115263317 14.529114263914526
Na 8.732939026271573 10.32351833292269 15.123096660429352
Na 10.986045613386455 19.477471815514868 15.14938428544395
Na 12.669872814262908 10.558512689083932 14.99940034144119
Na 18.65031450626945 14.634510752420566 15.14130908662844
Na 15.927974343006085 12.391072039909435 15.257948193530304
Na 15.781665325087532 8.801370907977894 15.508888953721028
Na 7.550426184062587 13.665596278788545 16.295366497501846
Na 14.005928639390156 20.98759914298171 16.209527167356455
Na 16.80443039160597 18.728052101675054 15.914118239438414
Na 13.06255574475998 14.035872140695227 16.398653005147356
Na 10.27594800685405 16.008647239451975 17.080382886087946
Na 13.590578730570959 17.618287490918693 17.141618943016393
Na 11.672664412193736 8.505405033681976 17.342626639790485
Na 18.1216003822769 11.376259193019832 17.5274828100576
Na 10.6188996442863 12.03172342470839 17.823866166439004
Na 16.189293784709196 14.813198544155867 17.951893224473167
Na 14.300237102554007 11.181800082377656 18.257721923209715
Na 12.668771341739824 14.388050187731938 19.700009173760318
