49
Energy = -52.21092246 eV
Na 19.292093781303336 18.408506231975856 12.928112057552667
Na 19.228480591347456 14.826248960512759 13.475796821141435
Na 20.189470680093937 13.604261569496582 10.317384055012877
Na 18.537940978971985 21.836377170616757 12.712678126916341
Na 20.234478330864018 12.85575777196665 16.942000560859675
Na 17.43435783596631 16.123458902309185 10.76546047693775
Na 19.524730157505434 11.412599559645967 13.560067598625228
Na 19.161165382115314 16.563709815053805 16.468806159286686
Na 17.059665660959446 19.682985465868587 10.20443714657223
Na 18.02482640777097 20.025181025321885 15.789464045498978
Na 18.169241913656364 14.7825380168725 19.458787413214658
Na 18.293299294578816 9.713886751670612 16.394760912959235
Na 17.410909926580928 14.031886143240722 7.980636614498349
Na 17.040224727092856 12.483741213694277 11.297309874433115
Na 17.54203520694826 18.42473574868572 18.90867628348321
Na 17.153872660485405 13.258939729522787 15.764468334811184
Na 15.461047553396446 17.230606178855265 7.881253064603227
Na 14.700385524166425 14.118065831626808 13.382775311323726
Na 16.203622039217045 17.081516163227885 14.339768161133394
Na 15.364458147383406 20.399423340964294 13.387352708480208
Na 16.791666997405876 11.487543795529934 18.971951087102145
Na 15.569670678260621 16.91311137501109 21.22211086227544
Na 15.668782483935423 10.51768927121175 13.977438258958566
Na 15.393000722289072 15.656690836452366 17.656625855117916
Na 14.276982534679284 17.64817232143858 11.180399834242493
Na 14.264187163045317 14.326070539412296 9.67360923214016
Na 11.779362404982711 16.599826695100738 8.837995675719473
Na 14.455634636727918 13.698685190002175 20.568017123537302
Na 13.627529962290112 11.111163928888312 11.102540543024832
Na 11.751603131155491 12.09624844273685 13.986743193352543
Na 13.920301123161217 12.347096245027016 16.898132098228004
Na 14.685088974244822 8.864173411291382 16.978585848218213
Na 10.878666949135923 13.03105015619038 9.457828656309083
Na 12.449447305843913 16.763853862755745 19.43997640746737
Na 14.379848299571695 18.988210464807903 16.94799964424781
Na 12.170791040052158 15.405075895853901 16.006737720246377
Na 12.360122253441348 18.331320878502037 13.926752224208386
Na 11.58616071502689 15.230200270149545 12.161446806696908
Na 13.378691209177813 10.380937483637423 19.990723775894182
Na 12.469129237519486 8.692890505792843 13.906523993858874
Na 10.282137838965786 10.02013642821988 11.21965190939622
Na 11.255111591153854 13.26366150411856 19.07050860856046
Na 8.649208039901097 13.06762801429685 12.493971752431406
Na 9.081412386206166 15.927492457040149 18.18492180485115
Na 11.1799048146766 10.042418438503852 17.138403400050265
Na 9.125427716986854 16.35462789297079 14.567015385557463
Na 10.761199953119975 18.805993305467823 16.958692459083757
Na 9.119623152888943 13.042527032842575 16.14831899116113
Na 8.873179077137674 9.852690809575533 14.423832476647343
