49
Energy = -52.93042766 eV
Na 16.20897145096738 13.258285821881534 10.346023071651464
Na 13.389926707824367 11.030530839070398 9.5201201352469
Na 16.37841298545663 16.725895966710976 9.59202254530767
Na 13.275740135597548 14.935317260937072 8.647338388896117
Na 13.640084701593569 7.68926850787597 11.27172100530256
Na 10.471969952418645 9.262805502707147 10.992567695429067
Na 10.557192519797793 16.44936574300436 10.803773508038343
Na 10.44732610344372 12.738186799396283 10.531398899981804
Na 17.61633246185019 18.916738626745516 12.245440133406982
Na 19.286747474501656 11.880572207220718 11.59385177954312
Na 16.355023073312037 9.881462293495476 11.682983441051196
Na 18.842973358467077 15.548518704923174 11.973280710539704
Na 13.597783130853633 18.201920342112345 10.83133836905502
Na 13.300175933898458 14.195721159837355 11.94739842682253
Na 14.514313778529619 20.05048468733463 13.800644685481657
Na 13.124929998349804 10.743583110507666 13.039747273777934
Na 11.429528954681981 7.727627982972532 14.116953100385748
Na 15.620816537457229 16.322194616098685 13.380995156402374
Na 20.79108310228987 18.270556052914255 14.321937790392708
Na 20.549278864790256 13.692724664456017 14.36891417038143
Na 10.015407165018788 14.390921147032387 13.781203613641141
Na 12.398551367243137 16.937689220983582 14.080812567703266
Na 10.801381001813485 19.6329998245425 12.713341572169309
Na 18.394793971641377 10.093498870590446 14.777817005405716
Na 9.725716303793028 10.914129101585184 14.221357234332295
Na 15.028814456692245 8.29000750875541 14.749493101880459
Na 16.57808618186662 12.966016545180715 13.928136890614118
Na 13.031421106354564 13.278422135475195 15.342219850883124
Na 21.283718556695998 15.762467265429256 17.24376323435382
Na 9.50526715637948 16.984727291069323 16.414095997286317
Na 18.311245423062413 16.385568840749652 15.525493246553728
Na 15.325439060480134 18.05381258369703 16.689034137607564
Na 19.930203517554734 18.972099480650176 17.882087098054935
Na 17.862143156908765 20.344559606937725 15.490518180350287
Na 11.924022842635685 19.70191901103401 16.190004085634115
Na 14.897275339055263 21.517975195133868 17.28018875935927
Na 15.70438440953513 14.597677074856975 17.043645707880675
Na 12.177929613197724 10.050921918857739 16.771381731827642
Na 9.98149489386572 13.296265564073275 17.25940278051107
Na 15.569250314670375 11.008422537123813 16.977916370055492
Na 10.737229434070223 15.814123243685323 20.087384853119612
Na 18.760095621430448 12.962959453573404 17.241172198777996
Na 18.16880248472129 16.13179997468703 19.17626947582646
Na 12.577102281541856 16.072625169957117 17.37056415421894
Na 13.047751307126973 12.870767709719154 19.096033659269168
Na 14.693298491609355 16.04346531797689 20.26083429205182
Na 12.987961881811152 19.028594485418207 19.47684230486832
Na 16.74628306641727 19.402121082775114 19.570448928240637
Na 16.515906868959778 12.882037257546997 20.091245799214917
