47
Energy = -50.21654724 eV
Na 22.026489165609597 14.218293633628216 12.441577693831487
Na 19.210681214669837 14.545023553699652 9.89791081370585
Na 14.303290211652744 19.26060295694246 11.52289785408668
Na 16.69582048928793 16.883706142874665 10.900971198659207
Na 17.567615512899085 19.84588778916661 9.204993263883178
Na 19.678043031289256 11.534807397897994 11.503509540187016
Na 16.925419779178192 10.515046143155386 13.695563192739122
Na 16.573131189559366 11.6898079190632 9.667584708080215
Na 19.18852523453748 15.674088545869461 13.249426463234403
Na 13.762728276089764 14.332492985565535 10.332886464853338
Na 13.929870311368932 16.311964400479287 13.352057646935126
Na 20.206312493767523 18.121955367226953 11.072777561682877
Na 17.522753102655585 20.410243590733337 12.651076295279923
Na 17.181426427766137 14.306395844180866 15.750730806963869
Na 13.738833224045582 11.083389903105507 12.0103483275263
Na 18.073284684182433 17.30604401701069 17.759996731575328
Na 14.066470109636276 9.9286506995588 15.841679280147497
Na 20.159082536304993 18.776333064693613 14.686533462013344
Na 10.843949208233578 15.242791000539802 12.237604440564624
Na 14.09226543871959 20.00781004913344 15.134194052731072
Na 11.277084874008988 18.621551028515128 13.456854564307228
Na 16.74961341352618 17.719290506302737 14.55808797904546
Na 16.557285147869134 13.700538121738965 12.353675618145138
Na 8.451077062314296 17.021308796314308 14.94397713292118
Na 17.322167835192822 20.772232413784465 16.405427718390364
Na 8.00010723523408 13.548651013835615 13.50104329254597
Na 19.867434354857874 12.335324032227291 14.933093482656398
Na 21.006184274870144 15.502363262177584 16.097179771952273
Na 10.590418113285383 12.157272734914107 10.703059904509315
Na 14.485565344132063 16.229567824107853 16.813974304391362
Na 15.975250613269154 15.573171915962789 20.29150096455358
Na 11.154186131157951 14.947343851579266 15.798737994697321
Na 6.018850116924467 14.855818901242085 16.22642888710994
Na 11.46970393436664 18.252377654988422 17.023468700498555
Na 14.91831667292181 19.06858974448308 18.592887946878058
Na 10.911503690540247 11.560904415943622 14.25151053758975
Na 15.126437579112368 12.959907394958073 18.18978818296502
Na 18.80380514959464 13.722315939677962 18.642801010253365
Na 13.989656631331025 13.170961338342138 14.783423768861008
Na 17.427994233055827 10.564407619278557 17.283211064646505
Na 8.481047251273889 12.551097286998495 16.864416218663717
Na 12.368555388301731 15.557721514477906 19.389175598414006
Na 8.837710028660759 15.872619426963475 18.3358792101985
Na 11.823957922335714 12.114689369112417 18.017582766060485
Na 13.628829018356887 12.682834043913962 21.31361213185155
Na 14.519264238452658 9.73103359919151 19.508703357128642
Na 17.023142500058643 11.808359268282201 21.014756844664372
