48
Energy = -51.62367527 eV
Na 10.020193518400026 13.685982114233365 6.699334561814803
Na 13.514998858423105 12.6415129939511 7.273848939977013
Na 10.554367700308454 10.119618587389082 7.251135344879127
Na 15.771684640899071 15.25532387548269 8.174258169662616
Na 16.205078673014512 11.786666755635352 9.620982120511819
Na 12.321250033999934 16.040867031669272 8.580690453727692
Na 7.875559960882971 8.09146951281682 8.703226005177356
Na 10.995370437072012 6.847264664434859 9.26684405610118
Na 7.646578490120917 11.917988910587885 8.721113937127312
Na 13.4285583047416 9.551681349278988 9.30954875158224
Na 11.12049178663665 12.684036821181367 9.777185708776708
Na 8.946617513277362 15.370529767188472 10.011715680644764
Na 14.766199677323284 17.592556873798287 11.070859644773423
Na 13.914056149810849 14.178936899513152 11.158631545837457
Na 17.619585245576268 14.771211588448766 11.131439317003723
Na 9.858349608250785 9.930384770226853 11.181521174747378
Na 19.03537284404844 11.018105903029793 11.89342593728555
Na 10.956552831926375 18.175357469663716 11.173193601369542
Na 16.125071064181544 8.952115976248464 12.15439436969333
Na 7.1013876762523145 13.089064023167074 11.998280170748567
Na 8.794983376431391 6.983033923672478 12.290520506944125
Na 18.140812131468728 17.80797043144271 13.32181400724685
Na 12.64084904836345 7.532416311877592 12.320725754880241
Na 6.293754554103951 9.588520273698443 11.346143317134098
Na 8.681978980821242 16.492846325260626 13.558715659328541
Na 13.11721752151841 11.020306824365413 12.350539938263056
Na 16.1891866386792 12.26946416891606 13.24915917286304
Na 10.21452496564233 13.202866924297572 13.294204395892992
Na 12.19039065062031 16.52887901963793 13.887872788083497
Na 15.591479501414506 15.603351551742609 13.970415518219538
Na 19.007931131771592 14.240657956321632 14.488741092731756
Na 7.911287381307139 10.395545762425858 14.418412490908509
Na 11.169571198366244 9.540101704292576 14.831551743193074
Na 12.967515530034456 13.242878777293964 15.213975587015755
Na 7.4523720966776335 13.738266049066532 15.645529113010447
Na 15.021030114771719 18.84624144921939 15.073798837616758
Na 18.339688479739074 10.76771154110291 15.65491810029316
Na 14.640233800091767 10.151823855018067 15.809220920987554
Na 16.171884038967978 13.42556975963369 16.62591940874883
Na 17.64334732630553 16.778229161995288 16.799670418977886
Na 10.331960181291215 15.394642092161847 16.824624835077906
Na 10.062243192791927 11.87625016115292 17.167673641679258
Na 13.787950380810317 16.156775336563562 17.211976981161715
Na 19.249222215522984 13.564402100393506 18.092630540033202
Na 13.225071908177705 12.896040843791031 18.68980438675541
Na 15.368005488785286 18.766983857407777 18.69147861037644
Na 16.641087197084246 11.28537001253248 19.11019734256868
Na 16.20018963263224 15.025271616107922 19.73122907790383
