46
Energy = -49.49303786 eV
Na 10.637792504033836 15.192409914749609 13.170918038402
Na 12.201082472055537 8.439218339689942 14.772527570034073
Na 14.20305912287819 11.70531111867078 15.111034023377028
Na 17.546825949336693 11.334043901593047 13.622239208145428
Na 8.775677695578732 9.387948368592687 15.032420221829467
Na 14.311323309849573 8.926822529641916 8.78401094616045
Na 16.298661184297213 14.746875437325482 14.2268053745326
Na 18.704817212856508 17.239037891566582 15.414881931402725
Na 18.902851945165906 14.50489577263214 12.06290689443644
Na 19.420714209425565 13.854050711124682 15.75210340554404
Na 16.832303580763206 11.807691658488032 17.160317999849873
Na 10.437473359349655 10.286547305671542 6.937712254706249
Na 16.51891356129761 11.907853351515252 10.296354844962927
Na 17.018947775480953 17.96239667107855 12.414097305012218
Na 6.7061054983623585 13.957725243561532 11.290689673341754
Na 9.992682246487773 13.117726208814638 10.477023389991764
Na 7.3960576326149665 11.722674453639213 8.437420071738025
Na 7.6650820690825165 10.47776383655788 11.717529551195595
Na 8.123078098496196 8.248274450697899 8.88306808311275
Na 16.588414176513787 15.492735310729339 17.819330359515945
Na 9.840044455988124 15.371401586762909 16.850818951938685
Na 13.52529233838027 17.155947103793665 12.612110433520913
Na 13.290133620390579 17.060910223584294 18.4162070258271
Na 8.07768358230519 13.078026401101399 14.509328379044627
Na 9.689235324683239 7.347153766459609 12.10765547070701
Na 14.142213537226514 10.110649071159273 12.09328639828959
Na 16.987329939974476 8.384985211008992 11.388051894703409
Na 11.034453954601313 11.832174825164625 16.728861482841317
Na 15.835670908778098 15.427744101924763 10.173463673495064
Na 11.386016417043386 18.134126853933434 15.308443275036428
Na 11.341853796409348 6.840208231220497 8.513437629043912
Na 14.546625104284315 18.750178129057723 9.72581206151714
Na 13.896322617747135 9.61761641350421 17.810331201726807
Na 13.174973275745794 15.0568126396331 15.630614051655199
Na 12.322309691447106 15.852853341126583 9.474745936064723
Na 11.108893781000685 9.77337413097823 10.245152047592391
Na 8.996987093482373 16.59863910568501 10.364017775473373
Na 7.816045127623526 16.740576137798897 13.94185563911371
Na 13.583278463538448 13.54756716173524 12.073042068409729
Na 13.894228357870412 13.305149434615922 18.595271416107884
Na 10.981354055681887 11.391642553722216 13.295806609842671
Na 13.495011806151709 6.7899436842091925 11.703698755739042
Na 10.06751352881068 14.02221981794632 7.275730148127876
Na 13.157255547970658 12.448236214508986 8.73527007125197
Na 15.23674366258795 18.149237899459305 15.67466147616006
Na 15.779070303648313 8.38902738086373 14.857338876776149
