49
Energy = -53.15236886 eV
Na 11.1572556594052 13.655204153541513 7.563998706908961
Na 14.608994267042076 14.55326248234157 6.820394495747839
Na 16.078981283299214 16.391206342814073 9.674174065124024
Na 13.974245363253925 11.056922900822396 7.771285591380072
Na 9.038918963585155 16.077586046125678 9.601588065079072
Na 16.969564143723225 12.724754850809457 9.005607545685844
Na 12.488649044769183 16.992612945449512 8.771032907993309
Na 16.20173182555822 9.24841539287388 10.098040441863743
Na 10.423170164790452 10.185541875024244 8.690966444213934
Na 7.75358320052055 12.73528835688324 8.454327564284734
Na 10.451062162663055 19.239567714160994 10.917642815157455
Na 10.232980070447583 12.912785774220813 10.975404117680716
Na 13.651558899961408 13.772002250883002 10.115316246052261
Na 14.19359847576393 7.220300114750468 12.572049363212336
Na 18.46840885515138 14.610909307327764 11.899431360985151
Na 17.44758362032529 18.089490422867268 12.56627394934149
Na 15.983080479613198 11.95455501030223 12.465956979317918
Na 6.97607076253107 14.051610133835569 11.713101316488741
Na 19.147388004309306 10.958343039910078 11.382734173466838
Na 11.593955102602397 16.16324520854947 12.18702345789888
Na 13.92718723173523 18.820416390862434 11.767590639018342
Na 10.65127131268912 7.647647869921443 11.509059506427658
Na 7.896216661881001 10.297743392547991 11.135013967643594
Na 12.9946978677098 10.278110795624443 11.1664738987693
Na 15.099987842344254 15.569245894026304 13.090535480112422
Na 12.731659064372483 12.987482073210591 13.520827473445761
Na 8.32829231581107 17.199743403933496 13.187381142411716
Na 17.235928391954772 8.864773982061285 13.722613702060912
Na 10.437807246183326 10.370427145668142 13.790158025677016
Na 9.441288195637462 13.990717354554851 14.465495656539193
Na 14.020534931351515 9.969902568529614 14.853646880767526
Na 11.748514860147587 7.281321311099798 15.164001428269762
Na 11.31156030708957 18.914814420571222 14.45991778010813
Na 18.657034773559328 12.165816741976872 14.95052398270031
Na 15.22994405808628 6.912665745837316 16.084675755986087
Na 14.873490540998413 18.28389366092727 15.328053790423004
Na 17.806381598431308 15.82423900685984 15.572785441311998
Na 12.528353117414895 15.636932844284305 15.792541891011982
Na 15.375178360273374 13.2258027978883 15.934639093737273
Na 11.776557808655744 12.158123931893616 16.91473274132539
Na 9.32897389353179 16.766288091777188 16.723814261066824
Na 16.705527805278894 10.12807260559163 17.27741460178841
Na 13.291126657535608 9.103357679555716 18.281980325309558
Na 12.30340025284083 18.258667464799032 18.020510252940582
Na 17.971755331635215 13.479673882160961 18.294768846539448
Na 15.237956946016855 15.929682039412437 18.273598627396478
Na 11.74968085187185 14.90527646875137 19.233797539753894
Na 14.573544322792984 12.453073213434623 19.317358184514976
Na 11.41753935846457 11.474655154356581 20.411911730670454
