41
Energy = -43.94087463 eV
Na 13.957893739572325 9.378062523250192 8.646597516184332
Na 11.931463773010812 12.538538398115872 7.431256646178971
Na 9.77826278660367 9.598718068239078 8.714949574794266
Na 15.166424866614229 12.774327882982838 9.467042626834669
Na 13.920334563656876 15.77424916649758 7.512524482543093
Na 10.202066516045349 15.916425939827032 7.806451249692923
Na 17.486779155980482 15.153052020625266 8.23390245104208
Na 6.362502456545806 10.770614680222641 9.94794759716618
Na 8.953251765193732 13.065646562508606 9.632698977309756
Na 15.542449590286635 7.0257094719044755 10.852345672123041
Na 11.859107500210602 7.962020216162008 11.472055504064114
Na 12.053501565720284 11.373603426978857 10.684665754615173
Na 17.696518103475853 10.297971522623685 10.405055287656822
Na 12.118466268825024 18.18477410694971 10.105884393211712
Na 14.357200091800546 19.405721696095114 12.884845750489584
Na 8.925464831556903 10.208001232241276 12.250255985771085
Na 15.304173024515118 16.600608229152012 10.762846706437896
Na 9.171716347599082 16.290976905808847 11.509639120066645
Na 14.894637392576337 10.10202743456648 12.209428257977633
Na 12.249675004505072 14.749618469343547 10.331356258951308
Na 17.736836028061454 14.206930278930429 11.664544460622315
Na 17.69560835914184 11.659810309921145 13.932591790297339
Na 10.528441823074685 13.467597144878335 12.963261326420284
Na 14.436956052727599 13.45963433252666 12.985625988950563
Na 7.026170341799007 13.31867314065507 12.7300824653576
Na 15.940551688688553 16.573739068028374 14.20729574109565
Na 12.380272951284761 16.540249142482782 13.466334770544352
Na 17.36638589186612 8.16469379439256 13.675699185014265
Na 12.03110103911429 10.566710754685321 14.053741565965355
Na 13.715350967182559 7.566613875847827 14.542671806888567
Na 16.09098081175019 13.92561629076701 16.35819467447495
Na 9.461769934834349 15.575387132607958 15.452449168853867
Na 15.05041541974213 10.615377176930508 15.976909260452658
Na 8.975011207776207 11.895377684403439 15.616694835280672
Na 12.478121996963406 13.468713286938943 15.83057499485418
Na 9.902939091393124 8.266403558083748 15.356484175554227
Na 13.168401022608435 16.50042052530915 17.03050731654998
Na 11.867340765059275 10.383634276054817 17.579903873677168
Na 13.834257188254737 13.259700608600129 19.006426281916976
Na 10.255662302113047 13.663714999300181 18.546054838373497
Na 8.530159683521068 10.15495857581115 18.566825576995793
