40
Energy = -42.92002805 eV
Na 18.096840610816518 9.538659075012067 11.512929104519854
Na 9.063169357176395 15.334915596604352 17.153132363433837
Na 8.559347420661863 13.861428243119676 7.933119961022826
Na 12.245810083692426 10.35120310931883 10.911446494642037
Na 12.312059272019374 16.134096856330505 12.119870831216575
Na 12.521236640856456 15.420544951349235 15.843680357592046
Na 14.920032282796633 17.665687672674217 14.201658026957226
Na 16.15185314410683 15.177423768135657 16.743646429884045
Na 15.822504390483365 13.654844573651276 7.580670441201518
Na 15.290277382608076 14.375267142847585 13.486001935717676
Na 15.227139521678549 11.021861752528048 12.623149167725101
Na 17.948742171869647 12.306555826410909 14.520050342580497
Na 12.57091894750672 9.903897483055628 18.13539770123416
Na 15.757583150739757 16.314328606720405 10.577238016752512
Na 6.50550431271023 15.903850602257332 14.68482653119548
Na 14.397313012650423 7.7412108206770585 11.607103875218804
Na 12.491799224049807 9.26962908379145 14.516393129200305
Na 15.347882346496846 10.302297815173862 8.989771622465577
Na 12.152536404265016 8.071936342319646 8.481315281722916
Na 10.036782991714828 17.69667217512894 14.492383899549178
Na 10.430311276938026 7.644373937688382 11.821742229988454
Na 10.622872440604587 12.202505431082418 16.476725968486722
Na 9.431929629232911 14.396679257407 13.812685937790564
Na 12.320973159194372 12.70020474916382 13.519171974902918
Na 9.243075921746788 10.81623653362556 12.993314350877737
Na 13.963998760576422 13.355766744162212 10.359005894619429
Na 18.217266072216468 15.984979433756221 13.558225313241616
Na 7.079661080925845 12.451234839349471 15.441556435029423
Na 17.595171543745302 13.14654764545586 10.848132825802836
Na 8.813490806996672 16.296991653862317 10.861975941938992
Na 12.151039914125763 11.827554844387702 7.649847415049462
Na 6.996214547865419 13.145817760910326 11.402644161891386
Na 12.905453592328849 13.63083927331748 18.851813528726282
Na 9.155565762716362 9.046087778326944 15.953756300524638
Na 12.011041040679851 15.494164238912472 8.440056079447041
Na 14.591922461196646 11.985508684975843 16.18043986014546
Na 10.434832932166087 13.270212004244778 10.615292549148002
Na 9.082380447896117 10.3046856705257 9.290133923508606
Na 18.876201459431375 10.910650350404067 8.367190784594957
Na 16.20106701823803 8.886450209057115 14.986305548175844
