40
Energy = -41.51345405 eV
Na 17.451616346551937 12.070184758720188 10.45102415705187
Na 14.349015654945735 13.623801605669126 10.973414485220273
Na 17.241470956208765 15.3424240991036 11.269085220514883
Na 19.445836584455716 16.70270923248687 13.528803770123845
Na 11.113496254546927 12.451471075548586 8.542801527702025
Na 14.029187566587893 17.0644420367213 11.317124005682025
Na 14.223691895531605 10.795166009816732 8.890762100510752
Na 17.109779659506717 18.73026353943989 11.652713767058973
Na 11.177884332090306 15.087575926780065 10.6921974749245
Na 8.575674472090364 12.240562518545552 11.015511429705088
Na 19.886344911290397 20.114727946154083 13.524918767792123
Na 10.924228902130219 17.52951475472568 13.212648912423932
Na 15.1355850128209 9.896100912402595 12.034276716890577
Na 8.4624873563202 15.192948640414665 12.814897144305888
Na 13.584907984771371 19.420892698912823 14.047210340199497
Na 15.806687351066046 16.70866346428772 14.438736774410525
Na 16.65503102959168 20.537088736028593 14.586965635260878
Na 11.87626236507462 11.26792803341012 11.60826325723315
Na 18.640236951159128 18.404341159076143 16.477475750312767
Na 12.737477245786863 14.597549664627836 14.043095109767203
Na 19.432763030651493 13.27930031342037 13.364846790596177
Na 15.170189069655516 18.971209736299073 17.22789694549393
Na 9.555177220574548 15.438021169698256 15.963752357861534
Na 16.07983849363558 12.854799910681516 14.062018093184916
Na 13.116827651580634 11.07026449136788 14.721176809116889
Na 9.780469567534936 12.244321326953639 14.294825948153644
Na 18.178182193222888 14.891143143633318 16.262502279499216
Na 18.695664082149452 9.817934024576822 12.981068367545761
Na 12.222466081370765 17.4796267346331 16.594350184964878
Na 14.621209983463682 14.776031149622685 17.11698953980378
Na 11.585616407008642 12.780027304450565 17.184726731262963
Na 16.04266415139394 9.32980973015821 15.267286966097172
Na 18.44715970172907 11.499866388797889 16.40987198201438
Na 17.227679136173972 16.72065063287785 19.1040327243468
Na 10.727378194961654 15.567721627713034 19.194556569415926
Na 14.706773566337775 11.181213022704307 17.792160953853497
Na 17.147959103367434 13.230348265038684 19.198373504869885
Na 13.771936725271823 17.10417742934468 19.76840687916779
Na 13.327214487069524 13.223897109969203 20.209321922109666
Na 15.697602433927807 15.100957866505825 21.87452002468023
