48
Energy = -51.52828013 eV
Na 14.453642989600443 10.158915301865987 8.005195816025934
Na 17.28550518707565 12.476247764052852 8.047558109668588
Na 17.627828656856423 9.040944266249458 9.219978757925523
Na 14.761160404580124 14.665048419028695 9.563215610860894
Na 11.85738548596879 12.182002397963318 9.647155492207023
Na 8.289594526084704 12.679409644561735 9.3115608630606
Na 14.462045633508872 7.815827138316709 10.855218130301244
Na 18.992414689344074 11.84202605492582 11.060806242024585
Na 12.3662990234671 19.384480176253227 10.889591254865183
Na 7.390277881920222 15.80363017617387 10.873434613981823
Na 15.798123381273061 18.132347245797234 9.780058348767671
Na 15.50587877559812 11.325604915469595 11.007602225858333
Na 12.43282176321386 10.1723553537859 12.560781224400717
Na 11.247870638859142 15.864940998204089 10.41614850191898
Na 13.27001491205911 13.577373811695011 12.553565505391106
Na 17.30602962412364 8.864251933672847 12.811243245113236
Na 18.316895239082584 15.421195989731098 9.856789580094468
Na 6.3464257342361465 12.654884705014387 12.227484943405093
Na 11.252154176848432 6.897411818793755 12.442004039682347
Na 8.969687950085895 9.957444444860169 12.089370180770675
Na 9.376226958120121 18.1627187855463 12.671036422906129
Na 14.180120353221799 16.88533561378262 12.60939358558592
Na 9.734467408368392 13.345600420763867 12.45399587821782
Na 15.3107443049634 20.23848481080621 12.768256885633017
Na 16.765620200198644 14.146188422062444 12.80147380924081
Na 17.728346801989726 17.50666331401205 12.775527799225314
Na 11.2496523621104 15.833516621270528 14.50064379054579
Na 14.15529487830678 7.763718366328467 14.469361640245278
Na 12.272258108073707 19.25559098242373 14.573397735018741
Na 7.596456420664555 15.409446345894018 14.496139078403457
Na 9.182697408263284 18.0049422509553 16.40482934834703
Na 15.220424510561372 11.257075122866475 14.642314252899554
Na 14.631777400185078 14.668565347542879 15.687598566657046
Na 8.280246237396844 11.832175179901874 15.305546357259056
Na 11.778781218509284 12.325918756885535 15.468398964531877
Na 10.658091831175994 8.923715688458069 15.326926048494217
Na 18.71460020936953 11.562850276628067 14.754048778740604
Na 18.219902142627067 15.070147535287548 16.041289547451928
Na 15.614417874571073 18.068058879566838 15.76887299020112
Na 9.645352360506436 14.571261516245675 17.438274480117883
Na 13.779362850796588 9.997431757371151 17.55972584994842
Na 12.575661921470225 16.977429708801328 17.57806468651422
Na 13.23884041445678 13.351000827222617 18.7684344620571
Na 16.689374755800714 12.311022967301692 17.923377917349345
Na 10.377915266128177 11.077772074606653 18.370463246763048
Na 19.05510479587061 14.660943426878067 19.527847781015222
Na 20.440188293298565 12.204675786438242 17.606210232160574
Na 15.856799522055116 15.932190140581872 18.750570660991503
