40
Energy = -42.81811894 eV
Na 14.994017081041012 14.503680362442452 7.929242357324879
Na 13.064185927383436 11.336223646521104 8.422078294570587
Na 11.03395193613162 14.560400252538786 9.03279652316231
Na 19.758548235238155 14.204282331375468 9.3529221813386
Na 16.734960609343286 11.709852978217373 9.828213288708382
Na 13.59527955613043 16.902878494470613 10.38149549858735
Na 9.55165166950954 17.541967693802263 11.11630660630831
Na 13.7518022025818 13.377205271971052 10.89777951890244
Na 16.89393418354494 15.302572138386855 10.974069198060873
Na 10.549757433214335 11.598976589127762 11.391541209622757
Na 7.259976902280873 10.972040741793208 13.519204905589552
Na 20.216223334545433 16.17360788894912 12.4977516124647
Na 13.776066102590182 9.880684922600414 11.99369485964939
Na 11.176791878201978 15.068776060028775 12.552371014709465
Na 19.441207744914642 12.703242016807732 12.545640361438096
Na 10.796543262745626 9.655383254705884 14.53415582607451
Na 17.551754237124236 9.474454891980061 13.13005022397564
Na 16.050826034467665 12.404147111406767 13.27833866660475
Na 16.678328345855277 18.158426586330055 13.306697764558274
Na 14.427803294249324 15.56329504846958 13.636191120150635
Na 12.16947018885313 18.221016373146067 13.794131537330143
Na 9.537642162849233 13.077905196204748 14.913770832767216
Na 8.749398921632068 16.596867424997132 14.739319187003543
Na 8.116484933855071 11.049652952789575 17.206422245325264
Na 6.2208332288665185 13.64807815923365 15.606377134737956
Na 14.78432081465694 10.013685091301506 15.717761028925349
Na 15.377109766152929 17.122989088416404 16.752905173718574
Na 20.89014693165837 14.570858897575425 15.625289825221321
Na 12.739460105263717 12.428216912101956 14.180631955057407
Na 17.6749500248202 15.044640820819495 14.718705119659177
Na 7.834360488709419 14.242280073026121 11.979152403957265
Na 19.130302119452143 17.6776917944627 16.12589123626424
Na 18.10870283159153 11.731075458154061 16.189752378263048
Na 14.982793621482207 13.580886661637058 16.540950456868636
Na 11.964485078701362 15.54508320644193 16.321618936730303
Na 11.87196822227771 12.015183575307454 17.740832735478048
Na 8.95673996180283 14.49469514060763 18.013277880722118
Na 13.600052726523153 14.799617489390245 19.424274888498687
Na 17.724121444112193 14.807838654274635 18.35675441345045
Na 15.676010860295266 11.65260315283687 19.14460400286936
