40
Energy = -41.74881555 eV
Na 14.87451645750233 21.82185761054752 13.384698958442346
Na 11.04132034600208 20.388715935740045 13.550165449287576
Na 13.077291736365547 21.039089673548364 16.258414295703474
Na 13.327696662529224 19.767686506777924 11.04861833535787
Na 8.662434224199629 17.651756246131995 14.101260798444564
Na 11.492506894082055 16.846152923991696 12.36806842500819
Na 16.85917441555187 19.248120723467842 12.262174180259594
Na 11.297616395560325 17.80807433811377 16.264908402532495
Na 16.673348876141596 20.101544473431513 15.765967948268015
Na 14.233863363589334 18.09592739987352 14.262883615714873
Na 14.34427898517834 18.523335186552806 18.117806142631654
Na 9.67441973040806 14.544747117263205 14.960616393252552
Na 14.722778853155962 16.717830141876295 10.683542757749269
Na 13.07371138671692 14.970237792223948 14.978980202748492
Na 15.968513407501256 15.201097941764875 16.93707758028953
Na 18.23147440976946 16.3596060683414 11.226352490619004
Na 17.88294090211946 18.046041852415673 18.13915518031714
Na 12.96799710053337 13.883784146260725 11.455806234573387
Na 12.590222722719387 15.615899177951126 18.56860276287108
Na 17.95716230956612 17.08725497480631 14.704401599019876
Na 16.14975921378604 14.346816483724334 13.412968573312467
Na 16.257833639958662 13.54342499185749 9.942381928129455
Na 19.785535829166804 15.331672781859972 17.080526932289924
Na 15.733720250489013 16.097829100301777 20.380382234363
Na 11.529165913421707 11.810081204079205 13.739924464072045
Na 19.848781797410783 13.65896501266961 9.920538468439206
Na 19.9639915394948 14.477523215660884 13.5876790343644
Na 19.31243551776995 16.297195198608765 20.68783359755874
Na 14.579581361714785 11.946182483014855 15.793645195838607
Na 11.347073340060026 12.669125389710016 17.391926587276235
Na 14.803844103353605 11.102208350579103 12.090789840775079
Na 18.22612092257338 12.514131577730558 15.839773880768465
Na 18.30659386466879 11.705241684626406 12.337787422931575
Na 17.96082549138232 13.413962951525995 19.31110314163169
Na 14.426201784899714 12.913025511645078 19.47635834084951
Na 13.322511717672871 8.985264921370941 14.30003138286612
Na 16.96264905810205 9.548633998909466 14.547969504575347
Na 16.77256886176016 10.459339968066875 18.229065343535805
Na 13.131315202315452 9.97064269459186 18.36832813589501
Na 15.21038116970457 7.699978295061577 16.866586751249635
