48
Energy = -51.41972282 eV
Na 14.581779308078067 16.95891076086309 15.77019272098755
Na 11.041931746185211 13.756484431452447 12.148628222207417
Na 19.608590640276088 13.737673352517534 10.551629500184523
Na 11.106670850305928 16.617630450738694 14.619153790987383
Na 13.963375287729312 10.446235230790272 16.711254182895743
Na 7.907935505018406 18.324839099423432 10.124770795407375
Na 19.67750783621345 16.564733499471654 12.93208751605097
Na 14.417109699134643 11.06733442110461 20.33757517165044
Na 11.764449268357525 10.211524490334206 12.86427605827411
Na 13.057389655470418 19.46599535264172 13.310687587118966
Na 10.266411916611775 10.335745953445064 15.909908759492607
Na 12.866722234488915 7.3906696470321 15.74365680833769
Na 11.696166561253099 8.96813341260312 18.933794375557788
Na 9.006645365959827 19.200910019965487 13.538444440024186
Na 13.089529376477602 14.929925647557466 9.167383520366558
Na 16.33744228612645 12.952218258400412 9.080271541041247
Na 20.983903885023707 10.264280896940942 12.061322809234534
Na 17.632863991920527 11.069618092539601 11.789412802325336
Na 9.403789005358902 13.857679301399543 15.819654208957374
Na 16.49116625123928 12.17919185977911 15.107517364402543
Na 9.125344247720752 14.860685886885348 9.361444397723526
Na 15.084768955717534 9.244404286432006 13.335754198647509
Na 10.954353667454454 22.137776818806753 13.923456499483745
Na 11.802119931125354 15.995393263991891 18.002809757054912
Na 11.53213505459594 12.543461647586437 18.50222154757593
Na 14.95572599528589 7.768842232440045 18.942352822323162
Na 8.38570441502345 11.811855438595485 13.103769490427693
Na 18.16252519417731 7.633349329207101 12.384632380419704
Na 16.48022797403342 18.47938900168863 12.767726723603253
Na 19.968071661472123 13.051563916277761 14.150578458139725
Na 15.108209736902214 13.878416871887907 18.07776282886767
Na 16.638349222150282 7.5892710822335605 15.88026220528472
Na 17.35379094345093 10.540114264328121 18.085602544973327
Na 13.925332226555257 16.093368825672773 12.400411378833034
Na 14.430367478777749 10.04329769425291 9.8179464843493
Na 10.820763218324897 20.619515654019878 10.621474732391414
Na 14.342384039906237 12.562340101596323 11.994044131544317
Na 13.988150342742427 18.723612623059257 9.870969401005171
Na 10.91413943577129 17.210340925189612 11.228236838817905
Na 8.01436492670943 15.637589738300385 12.765070024146231
Na 11.36387937816168 19.480789853196583 16.46812506519049
Na 13.11065976234433 14.435956086134537 20.981377723125252
Na 16.713426749951516 16.394959082713996 9.860159643165165
Na 19.21912485177256 9.739108999690977 15.053344408375356
Na 13.023499935855403 13.479653109926081 15.180654012992681
Na 10.935123882159315 17.892440043682214 7.958525382832828
Na 17.860616198945962 15.365144264348135 16.09301163253599
Na 16.98679549988061 14.588960377052853 12.767988708864706
