46
Energy = -49.55239075 eV
Na 11.695246417677902 9.27062747648713 15.282994841682662
Na 15.227562691106797 15.601583837477133 14.335850269803771
Na 18.508059099662308 16.77814006310432 13.73002910275593
Na 16.023585724896364 7.430223807871329 11.912333627449195
Na 11.954978174494613 14.92353761850108 14.778166225802256
Na 19.3473410216266 16.480764496201374 10.137026940956883
Na 14.076110974889376 14.198308315250776 17.731337657039447
Na 9.488737134469812 17.518983315843787 14.061994948253862
Na 14.28948159515059 13.308769010579539 11.987874336696525
Na 8.278358230388626 10.264226808453023 14.754777692445916
Na 12.701199330100208 6.364409859529082 13.524186463514845
Na 8.438242841163817 12.435278838671113 10.945405293198725
Na 15.753601589664944 19.218016843490112 14.025378908844598
Na 10.09947277834816 8.824483892673145 11.924933169802042
Na 14.48526502560164 20.115343379517967 10.59373274789837
Na 17.283597483934 14.111311529727281 8.615484631413231
Na 15.727168571893626 16.554135981968145 11.092963703483568
Na 13.045971525884788 17.8421037121453 16.30257587882798
Na 9.372221453709043 6.803629980645508 15.032526560393514
Na 11.130490125174163 15.083102975039424 11.421490468589791
Na 15.97189510260019 11.048310791879937 9.940123751608398
Na 16.930958706818533 10.622190240274263 13.588602477262684
Na 12.744701003887625 17.93453794129107 12.666469552394814
Na 17.92075811994427 19.474623938617174 11.236121571585645
Na 12.847174762988121 17.53592097192572 8.842642931882297
Na 17.908749198965822 13.658543502528733 12.030874931294582
Na 15.110502749606036 8.223064621937533 15.530771299231828
Na 11.063657672898735 11.996436067287782 13.217222107616236
Na 16.491919201687963 10.83680433802572 17.64502493158318
Na 15.47011389035045 7.498328857600057 19.027303258417597
Na 9.992361127827976 16.035853096399432 17.32263253226308
Na 8.480661935822937 14.144013605076491 14.363597603946868
Na 16.507168851677733 17.86184937001814 8.127530634298285
Na 9.892124157252322 18.334904097639356 10.356092172788038
Na 9.672362538909368 8.944669811847831 18.051780924820257
Na 16.770160508439663 16.943225603419812 16.995757815743556
Na 9.84390648553637 15.028046905251628 8.408413699314575
Na 13.809419464039447 14.248359146282622 8.632468380182841
Na 11.683793607017787 11.624649495469932 9.767281642047285
Na 13.11713374325276 10.129328822389416 18.45563347829662
Na 7.538129422215042 15.891046404481093 11.32235636855711
Na 14.131287312237992 11.878749875261438 15.240814887241001
Na 12.399775466210844 6.560087285352219 17.353548735379444
Na 13.60779705606305 9.699911509793989 12.275592012172057
Na 17.682939204456837 13.614716042979085 15.721624119355287
Na 10.75532787919965 12.376316873537867 16.960125671607464
