42
Energy = -45.08160609 eV
Na 14.58731050773561 13.958420034592665 7.091955944968767
Na 11.349356477397768 15.120511101053866 7.944142851862755
Na 9.51784441518837 8.927273629578888 6.911673919074682
Na 12.10888818331286 11.581602504256628 7.83768919034046
Na 8.51954154677797 12.29780863813118 8.127003449592607
Na 14.845723962030325 16.907628089202888 9.22476640642085
Na 15.510650471979133 10.93224432225724 8.917116359790167
Na 17.332793104378695 13.936133428895046 9.263926146333093
Na 12.760732125966914 8.116979014910529 8.864823079877333
Na 14.24686026912099 14.109589989796174 11.012280251314195
Na 8.288993820603386 15.374669523495857 10.334997252394658
Na 6.798339437500672 8.991372624905363 9.308828702271192
Na 10.794265675387594 13.268578700801132 10.90524572338146
Na 9.380386048461759 6.514206744563239 9.694742235774296
Na 11.567234694865665 16.838887017920122 11.011201292034102
Na 10.00045824922803 9.835362493578803 10.198640885591722
Na 13.200131691466424 10.74764834268418 11.474903694548459
Na 7.353902962093647 11.837440210016341 11.696662310083664
Na 15.422752591602688 8.263745852803657 11.487243590284224
Na 16.613396604565867 11.864244745996864 12.639360577492445
Na 17.3682682325489 15.867201756165269 12.141209897519674
Na 8.17625454201586 8.241842782666916 12.7517440754572
Na 14.362941560726508 17.533551611061768 13.01410268878568
Na 11.8390686379334 7.5507991801528815 12.500145585454304
Na 12.178057081689404 14.637507925651462 14.083968506454596
Na 14.4813189528444 8.457035621361848 14.927102141095261
Na 13.54165232213085 11.631256317265331 14.850566335827551
Na 10.828239671785939 17.790681226555915 14.363618173490783
Na 15.536842361672516 14.583680040526811 14.796235022720623
Na 8.736626360158365 14.29787271613663 14.054202274605434
Na 18.888159914716784 14.27003703961745 15.118491975509253
Na 17.348346514951707 17.578959840769098 15.331888027451678
Na 10.375181168167243 11.034341363443394 13.517588099007623
Na 7.557444843130685 10.819727964041906 15.33984751073113
Na 16.551668633817197 11.641649867135364 16.562365083303384
Na 10.759517415223218 8.58367833538675 15.836105168158195
Na 13.929503417486226 17.10415383066074 16.640332889172676
Na 13.44955858342338 10.07860573600639 18.0110140976404
Na 10.550128200050125 15.596538672803668 17.18389541208169
Na 13.645065141673857 13.71402700269733 17.835229144395356
Na 16.907460388360892 15.22189696038333 18.022874215793884
Na 10.556076955750255 12.107550939992048 16.93721355183494
