45
Energy = -48.11154433 eV
Na 9.15506733023871 16.884802356988125 11.966349571549456
Na 11.439082453203048 14.415607114246779 10.836259691032978
Na 11.91594133440088 17.971836391164832 18.529755347773925
Na 13.748401114264013 9.11427764699362 16.393177791520852
Na 9.092831816391593 12.573438667793868 6.075996825240171
Na 10.90010037428095 19.971191786972042 12.386116064808181
Na 14.680668813178697 15.406931189377929 9.731548427890466
Na 15.311720945273729 17.830942450289438 19.046449581491476
Na 16.368866747615183 18.48213628603397 15.702305780690672
Na 13.642236084918219 16.236643494314546 15.969462334770457
Na 16.77644605139449 15.115457197094287 17.18945965889298
Na 13.568103262765437 11.67561182978586 9.835210841120075
Na 16.980294669431608 12.655891756823433 14.732438029403351
Na 11.44461285641379 17.55482047096001 9.294571426439731
Na 15.121849222699575 7.115526901931128 10.702731546619543
Na 15.768682638566716 11.776120191490211 18.319505666821374
Na 18.254738979685538 9.368294322175771 12.549069779942185
Na 14.953275325492152 10.136992894082358 12.968134921544042
Na 9.832152230523349 11.502471877379921 9.48761202863175
Na 11.874806564892774 8.634710712112884 10.01507561787714
Na 10.289955757649565 8.468105737418385 16.229350957371384
Na 17.244080822215558 9.500777128956488 16.00008726950446
Na 14.113088295978603 13.807158579781248 12.893830242157359
Na 9.354970011709169 11.783084425385088 15.68601991337597
Na 15.809353921859849 6.885491771227179 14.111210749437937
Na 11.954993559067809 10.679507436469645 6.7068521315685095
Na 10.86303335003555 14.684162440728024 14.238844630853936
Na 8.980542743855379 9.278941423506948 12.687075835331402
Na 11.576867169158989 11.142674045604355 18.550953965072594
Na 10.196705093306699 17.870325114156355 15.330461584823894
Na 14.427931640256872 8.416807586804675 7.440455414057567
Na 8.330823551350248 13.079250752141867 12.32047934437814
Na 12.324995105280895 7.6019190332165865 13.387092850509793
Na 13.746158133603329 14.640458883563618 19.22273121117782
Na 13.017433879986166 19.818835718597235 15.531755352642447
Na 10.55596751977806 14.667128583002683 17.63254497300588
Na 16.568877996808688 16.008092918666396 13.215402298866525
Na 13.361582538103276 12.670507239990203 16.019458175009795
Na 16.918577657301647 9.85136361780713 9.319944002537929
Na 12.031069048704431 14.22030897441263 7.4424913753818585
Na 13.051243468702388 17.28691922550773 12.640005677943567
Na 11.606024463626467 11.246811080443694 12.936494283722011
Na 15.49245214442811 12.432057032663794 7.216497392977667
Na 8.711564259581174 14.97538684184391 8.84883562414386
Na 16.982715432973844 12.901105251046538 11.000780191039183
