49
Energy = -53.18940413 eV
Na 11.300758011779648 12.147693453305843 6.8276992785475095
Na 13.855893967221428 14.749370249421617 7.543098600728846
Na 14.610496647299746 11.02300922641044 7.852524160730399
Na 16.46159764252868 17.247043309024576 8.40030914859273
Na 10.398670754749835 15.313519603997918 8.583566574249792
Na 17.20810508842536 13.641526143428306 8.73185312730168
Na 12.9977078810645 17.840898068797717 9.372894741577998
Na 11.53672607610225 9.308598167030912 9.052503811816901
Na 17.896788472151204 10.009955070264638 8.961485793362817
Na 8.853636266963859 11.776282595816483 9.59876165211836
Na 12.35471385905237 12.725856840316219 10.14935517270536
Na 14.937183205973932 8.170596385682188 10.156944799405487
Na 14.91206128962505 15.332932229500267 10.970625218356625
Na 18.52888293057406 16.077870936881745 11.219779114197472
Na 15.69879425068001 11.558409820766052 11.261674332319055
Na 7.768350052410237 14.825363229750577 10.936885886967193
Na 15.935925779941632 18.742737197965095 11.629458591658091
Na 19.119310723551894 12.372786375090714 11.460650277370863
Na 11.250013648181977 15.947060369564921 12.126808475680974
Na 11.897196707870112 6.540768790255836 11.441548842574825
Na 9.187798813533524 8.963899501951872 11.893342085058443
Na 6.816130212667765 11.749212053024614 12.891853674816
Na 12.709789188005399 19.368207275601208 12.568134289148864
Na 12.651285403358964 9.795726267089899 12.493238585637044
Na 16.999421422838793 14.121380770265544 13.876576249409435
Na 10.05276598704691 12.423082635176678 13.10126197142268
Na 14.251630854020588 16.55931513600919 14.35388354793556
Na 13.545919426533734 13.179663533070514 13.440805115598945
Na 17.724956558806337 8.825501212710265 12.360412653495331
Na 14.740545787875629 7.063632051367265 13.695616362631274
Na 8.228171787956958 15.516097459924419 14.450179709351076
Na 12.047991493831777 11.032384851129592 15.908309684272426
Na 11.256767969249072 7.414948856473615 14.896367711816954
Na 15.545612260412605 10.518539474580933 14.892523999003304
Na 17.78084813402515 17.694727524555297 14.342187728126474
Na 10.936944792388742 18.16753975154899 15.369912642446494
Na 8.617778891271517 9.578780150261986 15.2521513677891
Na 14.76384995247968 19.561263947183285 15.596406728679463
Na 11.369649308581057 14.69702185221333 15.614818660517136
Na 14.658322397660584 13.656642359367154 16.781718680247977
Na 8.692231853058356 12.673920418345247 16.73430490479288
Na 14.093334467197964 10.936045332433581 19.056889240273755
Na 13.883719458181835 8.008819819974393 17.068400690657572
Na 10.592573514343822 9.380768907738652 18.36115962039475
Na 9.310137108457969 16.133428496452233 17.943654141903647
Na 12.967624444049063 16.820132461043954 18.011472707062218
Na 16.403629628500287 16.71528718021538 17.481843226048355
Na 11.554521616085252 13.317599104926092 18.91477094639755
Na 14.825882556384833 14.5068020970432 20.102024019753706
