46
Energy = -49.69278176 eV
Na 16.5844266587639 14.712835622534884 6.814240212380766
Na 13.15872007421161 13.476195266026524 7.443125324131197
Na 16.021719362923857 11.277966370220398 8.13803626925599
Na 14.158493895173214 17.02324201921626 8.360914292510369
Na 18.79746223694837 13.24925896958855 9.502231050427477
Na 17.62840525655587 16.963361382213744 9.613177683351129
Na 15.501111897826856 14.123676024788177 9.939318274276035
Na 9.560195823707184 12.415874305971375 10.588321518343312
Na 13.148587288745343 11.494192945184118 10.703109824297686
Na 12.028325309977763 15.058824372857465 10.670241944114704
Na 15.21409209945 19.960749354836366 10.709278077812549
Na 16.677870723667702 11.306661678135393 11.984903707825847
Na 14.510781760681727 8.384265377291484 12.276798733965402
Na 14.875847639326086 16.945365823465877 11.928137723311316
Na 11.777649232062423 18.616437399868932 11.78672361982677
Na 17.932055275316436 14.911599967146964 12.710584899622743
Na 10.896117188275445 9.6139377031271 12.902918899122135
Na 14.523237998040866 13.888484918327755 13.200334264174248
Na 9.17578310928164 15.760397251769943 12.926416453601556
Na 19.734154877514975 12.044660374788123 13.56288060560149
Na 17.716892642997188 18.553446372611663 13.258448869059619
Na 11.262407603192086 13.058858422543286 13.559156050959347
Na 8.064082065798821 12.051405787607985 13.962472753990584
Na 14.209537631220467 19.493982956243638 14.424718448780444
Na 12.344324831832706 16.296470603438802 14.462714948634394
Na 13.879407478483722 10.972520338988055 14.4627525851939
Na 15.773688000843103 16.31027496628878 15.307961814145804
Na 10.305301069745195 18.575211402860912 15.656655594904565
Na 16.67738357806534 12.844954661523365 15.692311565213611
Na 16.897147343156536 9.41205270494074 15.31402905054674
Na 13.216604195993288 8.001141384224793 15.700836197134455
Na 18.986257642858135 15.293705467924623 16.348096601287033
Na 9.583397145266936 14.545654814732618 16.33440750049087
Na 10.842156366385867 10.961164835321142 16.344336028636842
Na 17.05414739569863 18.89998592615711 17.065148604997386
Na 13.288552442399316 14.02646284329101 16.96943777968816
Na 19.696628295095692 11.446682707013501 16.973235458137008
Na 13.516276117073247 18.019946965696782 17.557608536701576
Na 14.223988680285197 10.782359179687177 18.008554981726338
Na 16.13540433120046 15.731149737917672 18.723484349284174
Na 10.891124584349111 16.386406487241103 19.056477442496586
Na 17.191815587290893 12.44763010244415 19.15465391807772
Na 10.852797782687302 12.829910622617355 19.487497896199102
Na 14.109904737163212 13.488275767466783 20.75341749589914
Na 13.822697291815834 17.01147939924384 21.071625752529815
Na 11.1973386036566 14.975179567619831 22.232567550340022
