52
Energy = -56.61807327 eV
Na 9.46620093726463 14.700646652203536 17.1451017112896
Na 14.687762789716658 12.839071715263982 15.391454296429885
Na 7.46549494329964 17.312018481392645 11.188716164105937
Na 14.642143454108801 18.79681785900255 9.076879997463474
Na 13.439504229748527 14.310174415274052 12.512985193736624
Na 10.126420255504904 9.770591468250403 11.533864326491026
Na 13.327677378665838 7.601727147399069 11.746388868663324
Na 15.252862493563274 16.32641454238677 17.7645809933391
Na 18.890423568825092 16.0851947135132 12.68824527525692
Na 12.77699376562262 15.797887166020283 9.462485637750536
Na 16.92588484297167 12.740983225613112 12.693387019650055
Na 16.26732538588367 9.800257120648588 10.304363688605042
Na 12.331747780683504 15.770854228901456 15.477161570687947
Na 18.220448122276878 17.767657480104567 9.116110846643581
Na 15.693615238868984 9.128606936789346 14.088147164637052
Na 15.687365184955205 15.546945882376853 7.172988385269426
Na 9.391693502181505 15.459186957932683 8.442135297637027
Na 10.661854509278358 18.65266434446156 9.89389806602244
Na 13.155413485204743 17.961683461418623 12.381580907919524
Na 10.950751461224554 8.91165157861785 18.31129078243932
Na 7.657156689848501 15.199995985473373 14.179860201503635
Na 12.23057558003618 17.14453286703102 6.566138972817425
Na 9.729231321696759 11.990845628931922 19.871718531930657
Na 13.949253594691179 7.374894362372823 19.632914307142688
Na 11.933265553632548 12.256682880116434 17.253150937327487
Na 17.58623394041875 10.997008487974897 16.58621838406867
Na 16.656657240965327 9.863308785942607 20.094208895820834
Na 15.965617888552844 15.961970205278803 10.791907185719326
Na 13.462370141827948 10.991191483077404 12.217119540790634
Na 10.317767471592239 15.682806233336764 11.96372215825383
Na 16.779226131291903 7.439317350595156 17.41909145791851
Na 16.726076109755475 19.10004463713768 12.231965015755534
Na 15.694184799935387 16.163352806897926 14.243407234340486
Na 18.15151102290861 13.702679299458847 9.329234754660533
Na 11.71104012766191 9.465401847824172 14.811337681445515
Na 12.915836239927145 9.809068312732455 8.802353719104035
Na 12.579400601620629 13.463974238112419 6.698561032390748
Na 11.148232142585908 12.68166441503897 10.016196401120498
Na 14.088326766311694 18.979985084084493 15.622198537359607
Na 17.86642752237019 18.211102633904982 15.800889116126676
Na 9.934397608047032 18.170157603712585 14.274635031019919
Na 12.482867031287915 14.611730793730505 19.72862760528666
Na 8.665774277497757 11.048071106113326 16.28147491616437
Na 13.12111541049454 11.068506685506003 20.539901479429574
Na 7.929367294750038 13.052455649675169 11.342750584274711
Na 13.468746027803533 6.730801731953906 16.039239459604595
Na 14.75269535121672 12.881560726109594 9.59505581338299
Na 14.345863164580809 9.909580729307358 17.386548271951508
Na 18.04931687008154 14.566108243671653 16.132745224315073
Na 15.81878822133143 11.708019964800457 6.686724913959985
Na 15.69001722264683 13.093980138891443 18.996550072406862
Na 10.584115723458796 12.75120212430988 13.824824789246879
