54
Energy = -59.06839352 eV
Na 15.043408225265818 10.096075993130905 6.313918184603231
Na 11.607123056154254 13.913404866019441 7.000089558066485
Na 15.012513072954961 13.193793862439568 7.7340456744859445
Na 13.904298468909802 16.631033628565667 8.311680698519105
Na 12.2900033085446 10.707042765766536 8.60768502403212
Na 18.181641275080935 11.735901883705257 8.52605563561197
Na 9.324534086048683 12.863430696861501 9.731099697303408
Na 10.372701996577444 16.551208255860825 9.418016365167759
Na 17.445987227229445 15.433756399675707 9.024874736653718
Na 15.645808735298077 9.42630598111818 9.64308361793128
Na 12.74559866612618 7.58793466308409 10.471369479272619
Na 16.3334434806889 18.91041067003966 9.651252407122735
Na 12.631165746331344 13.903953429256745 10.366454571363812
Na 9.860008234638151 9.778250905390742 11.558171439218356
Na 12.909572350905238 19.121030498354916 11.06917656774399
Na 16.121891087128027 12.843002123198769 11.168132174045105
Na 15.118346320950003 16.37358536972093 11.648571450708216
Na 19.52505703910636 13.564844176112082 11.671373168618178
Na 13.261970387656927 10.702630397520368 12.091189793872266
Na 7.077868098780315 12.029361139944928 12.639200009698067
Na 8.078898361589761 15.48795885949715 12.158372129007011
Na 18.414199557312322 10.112750787953777 12.014438466792246
Na 9.312358312578594 18.98629866345488 12.007397090123902
Na 18.644596063184444 17.047123176531564 11.970959510720542
Na 15.518714982613277 7.8984770817765915 12.935725604555435
Na 10.368654230684657 12.966059597242062 13.239551557960667
Na 11.510342224749797 16.43436573114092 12.83432298341782
Na 13.772852858088953 13.878537882410937 13.718273984416271
Na 15.956560394209484 11.18085309843414 14.507959244225983
Na 11.564390396452911 19.490347912361496 14.795309381622276
Na 19.400209822002683 12.02825674219992 15.062833756367095
Na 17.15545342014546 14.736553826447734 14.271029958648954
Na 9.236942635815515 19.673109150320148 17.611759310403208
Na 11.874812189088958 8.116143409997266 14.215966843078535
Na 20.519681081589468 15.394488964420947 14.755725332267263
Na 14.611361761129334 8.637046063512031 16.63327538023548
Na 18.138992492249642 8.616313345921814 15.351840642560049
Na 8.745983096527839 17.25062139043298 15.191350734575863
Na 8.97063085751675 10.4041017424549 15.335658793240375
Na 11.384347016435385 14.952275479684946 16.25173647914957
Na 7.895238072166231 13.844863373018091 15.738609656526673
Na 12.407928855259554 11.326519314204885 15.780796195521646
Na 14.393453908095404 17.149738876332602 15.248282732742458
Na 14.833074625766551 13.772879717434678 17.096218666553103
Na 17.03642261346272 11.06212974380695 17.935047871054035
Na 12.204690907292797 18.03474915969705 18.124063600310183
Na 18.315386236365196 14.643583461355314 17.615588270166313
Na 11.115378066849223 8.829060473054659 17.8105986676402
Na 9.051792275323507 16.024881122001254 18.641922724993133
Na 13.479155511255396 11.221634551650535 19.22745427539166
Na 10.022620205367542 12.365632267034595 18.33461255945885
Na 15.3821579381155 16.798211019676486 18.817238973576455
Na 12.46022108401454 14.735003025780816 19.79612555776859
Na 15.908752960125074 13.631669160787654 20.4237086886897
