50
Energy = -54.22358773 eV
Na 13.656002134424789 13.828556849968756 6.432761928080389
Na 17.80127840370278 10.165325794161431 8.771571990060037
Na 10.876859713868903 11.929948463977386 7.973166276634286
Na 11.249831564227264 15.679405137439826 8.665023297333445
Na 14.366739071865505 10.46555153629411 7.526995941129026
Na 15.089589679699372 16.46148930367498 8.657075729402898
Na 16.870695951609353 13.35475713043311 8.128941729276653
Na 8.357469284860196 14.140915089657963 10.090585977753674
Na 8.086603065868227 10.343583231845507 9.830927735709102
Na 15.532603300175165 7.507393715856038 9.470219452737531
Na 11.583167587991934 8.839765710385393 10.25258693090861
Na 13.589417417976357 13.438416938746453 9.844963798065331
Na 9.166420136344085 17.81669510258841 11.210362717098127
Na 12.731302140944763 18.384024724885265 10.473701916982169
Na 18.108921180805975 9.482122464119387 12.151639647256165
Na 16.129420026440695 18.880296817819342 11.879894439526748
Na 19.80604518591455 12.760908956451445 10.746990167772475
Na 18.217270472528742 15.96816498943845 10.057892870155545
Na 10.622609542778534 11.914396143012395 11.511553125129517
Na 11.168025712238464 15.445372113934596 12.312917306313818
Na 14.634810444221317 10.299715867484759 11.068989387723162
Na 14.73438001978112 15.940465788906481 12.416386089474226
Na 16.701712278148683 13.044029851700534 11.778746206242124
Na 7.767100087247113 15.395581228708881 13.53871483800875
Na 8.881395884951512 9.405265511723298 13.323544577743512
Na 18.238138794596136 15.70427632463884 13.525566117734197
Na 13.331376585855335 12.933053812230229 13.348985350251992
Na 6.735995814270251 12.100636517284517 12.921648804614493
Na 15.649810966464855 10.73674449758293 14.515553100428592
Na 12.310122092061762 9.518454300845333 13.85632527255833
Na 17.816008016536873 8.656109771909236 15.891942534110825
Na 15.237923128037263 7.449519479875275 13.350197924103572
Na 9.479520515135297 17.653720448427745 15.65220570297801
Na 9.86767282076743 12.756038816602404 14.88905174836981
Na 15.625771302828639 17.710407680848377 15.454914904286278
Na 15.769040543844909 14.207443315819143 15.700325965795894
Na 12.561513096517162 18.597444348294257 13.902455647963237
Na 18.792785692063266 12.133449235697006 14.60137092741259
Na 7.166725237260622 11.410481030687105 16.457911380768117
Na 12.244028803823221 15.464510749052636 15.81476999089655
Na 13.00557545460097 11.949463237006889 16.609779823036682
Na 7.544533100522146 14.887069306575277 17.018017808715378
Na 14.20644284925017 8.526712383723268 16.874946751888302
Na 10.36992984043752 9.681201358784955 17.05452557591466
Na 10.235192478790436 16.338205602162017 18.942889647326673
Na 12.600080336904142 18.474746087450743 17.52546388351421
Na 16.296787147613024 11.391848262536666 17.948639143085195
Na 10.078056544361095 12.856295887402453 18.59276022306361
Na 13.44964491563089 14.497024837773877 19.031672985164825
Na 12.974773192052782 10.790113802417341 19.719044268342248
