51
Energy = -54.96319567 eV
Na 10.22632291627216 16.79723165174885 18.10136266269633
Na 13.749939562832534 17.21304292612198 19.04933231389249
Na 12.593419105177366 19.393222526294476 16.32159887043837
Na 11.865826561194794 14.55552112469877 20.431632199005488
Na 8.6014497704116 14.302890933939155 15.928718194715923
Na 17.21386184100955 16.46173400612672 19.003235294922053
Na 16.025567788549765 19.59773608874915 17.20263100823077
Na 15.390368969349367 13.837619007365914 21.76712088701141
Na 14.503063332985272 21.89536445684599 14.538779631186959
Na 12.25579696271834 19.578954408968215 12.564238522642308
Na 14.598257418739738 16.463019997486082 15.68914567506724
Na 12.666696525610766 11.303108283185948 21.18002597027049
Na 9.897366831678964 12.099959767903478 18.816410201403084
Na 10.85935391245999 16.878528105283486 14.486118152524686
Na 18.27844810929084 21.028422321034654 14.577990124386858
Na 17.47964286600874 14.325455154958153 16.192709044581054
Na 18.448776165073483 17.619227460149787 15.647846187972352
Na 15.787636597720484 18.895496952663105 13.246308068587762
Na 18.373521296704123 12.986605383539032 19.55083837554058
Na 13.107555908953051 10.641665679518196 17.659093428835163
Na 14.81585392990451 13.672985995547918 18.490471939928554
Na 16.914013388641123 23.646685570651528 12.65198647422033
Na 11.912538273929277 14.173924865091633 16.722558967389826
Na 15.905938729182214 10.426917691062771 20.37099437597154
Na 14.852447903731687 21.362877063712574 10.813305067962082
Na 18.345377021794576 20.965919751162645 10.89503822807779
Na 10.438195269710096 11.130541904580715 15.364993412010795
Na 10.911442845034678 13.764032936406247 13.045595238243902
Na 18.933794689671352 9.339570817502702 18.895821998986914
Na 20.526590531567628 15.406673339288036 17.5475253222328
Na 14.276047566008176 12.929100483976006 14.570986127761547
Na 10.385165133397214 16.862373787335972 10.811898057574258
Na 15.580159486247643 7.937016667517405 17.42069556374981
Na 16.655432665912684 11.119730306284266 16.88612943542755
Na 13.51979144952697 16.036054233779986 11.982505406032299
Na 13.210273277584976 18.6216908105852 9.24259102198169
Na 16.720731547859472 15.411413807502873 12.984852647771271
Na 20.203631979742 14.710400793063018 13.887148937661374
Na 16.659749460549936 17.994485987583214 9.83200010422657
Na 12.280083178049273 8.12159820921843 15.252825595003143
Na 19.317781851362675 17.829067274119385 12.182143310389733
Na 12.267167051032114 10.542244829921184 12.328903121018993
Na 11.935951633896462 13.241374684500077 9.739630417645923
Na 20.16421807312115 11.896662134736962 16.3841507146324
Na 18.55012824539548 8.714926822976727 15.318643036275697
Na 11.785595512039658 15.99816505183577 7.562910670173374
Na 15.245049632724424 9.534285898880256 14.034890264342785
Na 15.170172789630836 12.471429404574014 11.16950561179693
Na 14.99847626838807 15.148569970996164 8.72041750025158
Na 17.936287439096123 11.937296160011417 13.409409775044994
Na 18.372856306720763 14.604700043964112 10.261682433250698
