52
Energy = -56.34710166 eV
Na 23.170193165519155 14.10592214832096 17.9156692689019
Na 20.1490522471643 16.079276470341522 18.03082090656763
Na 20.20281468589403 12.656018830102655 19.480671120687642
Na 22.116213327720864 16.091242834459372 14.990776726694582
Na 20.642864838976326 12.949042378992393 15.860845275804396
Na 16.88324911332319 18.12637006290505 17.934975279453024
Na 17.135214226631003 11.792976592549206 21.3440491980327
Na 17.13259694354548 15.027901458435702 19.702959677166387
Na 19.20507863609524 18.15041178741939 15.125097377101069
Na 17.560198084077502 15.044318087844903 15.922471286389666
Na 19.385524047366687 9.525937174626945 16.79269985307887
Na 13.463254992968556 19.291605160747125 17.06980366772867
Na 13.644791517370166 17.22445273301472 20.12455373384567
Na 19.383149529489955 15.149993212705409 12.728471831342866
Na 13.486731365265014 10.675052003920582 21.490611693563096
Na 14.469742624993815 14.160179661380564 22.126937464154572
Na 16.52267155911781 20.83452735810129 15.118624295000123
Na 18.005535588679557 11.726199985325747 13.993210782024711
Na 15.98984643282058 9.18994251198176 19.17936075381581
Na 15.519407601733613 17.66714259089302 14.580476039663198
Na 17.41853554966516 12.05301668059927 17.55894263463924
Na 17.556052610113035 12.559370990512736 10.40854528501504
Na 17.535815672621048 18.595570952340896 11.896061372407496
Na 15.76078876982654 9.146427794239825 15.590146874095142
Na 13.203352105004532 22.31365996631454 15.015851525059443
Na 15.994146060107086 14.535041563283768 12.825846684312085
Na 16.81584292061044 15.933498530037635 9.382519859465308
Na 12.680225870289703 10.114821187050165 17.887710009131574
Na 14.204740215503005 17.30868520424382 11.280721257607311
Na 14.972698125673533 11.032764630106149 12.35853575768737
Na 12.219413350558483 18.864576503824512 13.607391950511037
Na 14.516270017876705 12.682235779203928 19.007608307223208
Na 14.579166843991665 20.969558019030174 12.015420566583503
Na 14.303374912539258 7.538732340822373 12.698181182997198
Na 9.929734583722968 19.981626087642574 15.672717267144426
Na 14.528854256661713 12.559771509877498 15.442926785143351
Na 12.8300747065955 15.48613912407716 14.100842218156806
Na 14.298801745863068 15.579639995400292 17.27507042002736
Na 15.540568488868859 19.41284509591455 8.874254032357173
Na 11.21600977888465 13.163598937549036 16.348047170588867
Na 10.929738275432557 21.989214332750095 12.454617939655334
Na 10.975583607621427 16.833551909869808 17.426617420859248
Na 13.303007093020055 16.7098443407006 8.026091352626699
Na 11.856492928301218 19.552327527985586 9.886994535952974
Na 13.77527706966229 13.623787100714669 10.162319855175333
Na 12.24000736365214 9.913180252245006 14.394152299487049
Na 9.004653337642399 18.966674159590138 12.149136991420791
Na 10.860354052211232 16.099180008222806 10.843213914237916
Na 12.352988664672605 10.004739749553895 10.602558840432636
Na 11.565885435662704 14.128796139345946 19.826770579382256
Na 9.465068150905276 16.016028124286464 14.166923350738012
Na 11.313661798022835 12.834412965678775 12.666615078158468
