51
Energy = -55.28525585 eV
Na 16.078296526160052 8.85843165378917 12.057604747636182
Na 13.841911044186835 10.851741897737433 10.095134080174835
Na 13.795644724054018 11.986220270452947 16.93734070835844
Na 8.181787757097036 12.773503966843812 10.438848817395451
Na 15.298459481387411 15.00641205173186 15.517157001251256
Na 14.73976358409815 8.463088463587413 15.446444381570513
Na 11.919284618038846 14.425359901360068 14.73230621646848
Na 11.29930194608504 9.171331086654721 15.976251398455833
Na 9.726792175191168 17.567362235964495 15.38575328909971
Na 17.419618078921122 11.928316152721157 10.757745119084335
Na 7.540778342215736 10.162983470593707 15.82186120117371
Na 9.328890655868879 7.497268530602555 13.600129708082228
Na 8.921781378134558 15.201656079119488 12.897774428523824
Na 11.416642105944645 12.599517673574566 7.994508733426793
Na 17.201908912768765 15.480189263588846 9.995190834641884
Na 8.152912285894086 10.032466068580325 8.286459405944871
Na 11.843564163048947 8.710396280141042 8.001997099806665
Na 8.032924788231034 13.515877941760431 7.024576410469337
Na 13.204712385215165 11.182279012252058 13.599037479807256
Na 15.396178833329962 13.090545426857409 7.928093502554076
Na 9.984237976705472 10.703835137676977 5.303473947941066
Na 10.489725666578089 10.150830304003295 10.932457386944542
Na 8.194941082978332 14.42727330005658 16.29948773980284
Na 6.170977104216072 13.051681680690104 13.472785740714414
Na 14.381571519767338 6.606868538019709 9.732380840637905
Na 14.90198248027129 13.918416939055323 12.118200620946615
Na 16.60057734951857 11.67652573622698 14.395907123324516
Na 13.272917351930998 17.906855003514877 15.489896839264205
Na 7.076244662868225 9.712292027577792 11.962220577912323
Na 15.358046965073967 17.33918834572703 12.580728426264528
Na 6.191104166619151 16.77212950248193 14.299430104500383
Na 13.56825344901098 15.765121451959546 9.365201323193666
Na 6.342499770091505 15.789022198423348 10.563730816606672
Na 11.864159761706379 15.394243471602886 17.908199844894174
Na 9.760227433068778 15.90524489729865 9.366912183951486
Na 13.791092329697525 10.590746439665882 5.813658913480603
Na 10.33606011187439 12.133973804462618 17.588954219782437
Na 11.844070686735565 17.153135647466225 12.277634186751072
Na 15.017013645267562 5.4053628162755905 13.138483793438605
Na 9.356301436653219 6.938644490506257 10.030329688375334
Na 16.36274139469735 9.386735485397276 8.242456064365774
Na 11.61021154728994 13.527226769743455 11.306047102635436
Na 8.375220942957009 18.516324916026967 12.051048228697589
Na 9.641268240044374 11.78627380246096 13.868381670053141
Na 12.592686032794235 7.930941316081672 12.454371667829246
Na 14.670873481319347 6.969718888937685 6.247099275515951
Na 8.964974342841433 7.153614582079038 6.43248176950085
Na 11.729267575932317 5.1874647391025706 7.749429682192073
Na 12.130272007591664 5.745373992923996 15.244604576919418
Na 11.751742250739845 4.715608605866556 11.500735189075751
Na 11.825943036923013 7.763856010560778 4.476798435295974
