55
Energy = -59.10728711 eV
Na 13.705811519590718 14.16338756067829 13.483161161075461
Na 7.637312510999892 8.43499965726688 12.042579336558743
Na 13.608041914947588 8.358835740619591 15.835078013302615
Na 7.7362510752769005 13.816459734074824 15.554018672687922
Na 13.79444993307546 12.349374045421307 10.32995543985715
Na 13.682483114662848 12.15551700713132 16.4728313771443
Na 13.703371378866686 17.825295616350044 13.588577421816828
Na 13.903608733412009 16.050619812966566 10.394473971516337
Na 16.618730001842223 17.840188135593692 15.75278464736011
Na 13.565523466537272 10.489481835984853 13.178173218216033
Na 13.749368960364214 8.464668158932886 10.283157696295122
Na 10.87596619077812 14.01824618781161 17.62457525021475
Na 7.737122319438112 10.144657478599528 15.377318186229163
Na 16.900456709181977 14.074253754854423 9.620407478715055
Na 8.348950361795433 11.847236871470251 18.671424883658723
Na 13.70508624013337 6.274125424038555 13.091866599364728
Na 16.79799595362884 10.36739685431413 9.707827428965695
Na 16.75632406249329 10.514127340380018 15.967954324900381
Na 10.642783255485337 12.109647695162721 14.347998611539825
Na 7.800132323963396 13.882121057404637 9.154108708788547
Na 16.560158023011894 6.874532556367481 16.129127422774175
Na 10.676518070085995 15.902767628121566 14.57952978886826
Na 7.6189754378479915 10.268969718577358 8.909864480087009
Na 13.830648009645019 15.898265346700457 16.73653202305004
Na 10.614055313453699 8.301950632701333 14.054425346471989
Na 10.878916260604559 12.196484508507337 8.06839340008313
Na 16.92671031446757 14.219337957536505 15.886590357602781
Na 16.760301509080943 12.265975931341595 12.76401854160748
Na 16.96483070868695 12.222405129261489 6.500453339718424
Na 8.05639287833399 12.13158029959101 5.822532303600332
Na 16.753211219512792 15.94814213589041 12.68776421003357
Na 10.9849557228801 15.868917694105606 8.191421045806514
Na 8.108100196298993 15.749136169692585 6.122947643382004
Na 16.496081787757603 8.542867441104875 12.838136063152449
Na 7.9199513537744375 17.46029158890776 9.25524139190562
Na 8.059408502125027 8.520172539370831 5.714344766561058
Na 10.777610628084895 13.999705838409925 11.369990734085652
Na 10.870891679839762 8.437828971477138 7.873925725330563
Na 11.118953928921048 13.990592735069134 5.010020306842261
Na 10.772978384257076 17.652344148295153 11.47509438994048
Na 7.825913592253711 6.739482501396396 8.785784241039142
Na 11.071232981440119 10.383101420396631 4.7929341806944645
Na 10.636876453727048 10.325370512854647 11.099785720393333
Na 14.039056484550128 14.188847070754667 7.228135251366508
Na 14.224639928674431 12.223798930488467 4.194585766278959
Na 10.70651002642261 6.560139501823081 10.966371865891464
Na 13.918484352900602 10.408512039492438 7.214663001370924
Na 15.851434353154772 12.875310775219234 19.086504353708015
Na 7.612782302934077 12.056553337684235 12.277568527344334
Na 10.92352832408654 9.951754046856227 17.33078444856592
Na 16.664811504407723 16.342340820262905 18.954257707252545
Na 7.7568057866177025 15.677854121681067 12.447145190267854
Na 13.420003744067948 15.194981547173803 20.17234257285189
Na 14.804325321919324 9.410243910017755 18.798210417795094
Na 12.3147311732162 11.819356809330309 19.97285733158613
