52
Energy = -56.84285093 eV
Na 15.626502720553518 16.3548544888818 7.422647670753209
Na 12.553755451630703 14.335279634944454 7.29901386772662
Na 15.844419891454152 12.656754094607127 7.719739687832632
Na 9.520062868244842 12.269277806854245 7.524639156565781
Na 12.86370391580605 10.660608796077204 7.732519698140677
Na 16.060140553095057 9.053904753712409 8.462871351887879
Na 12.555398850397388 17.62414085804618 9.064853919638868
Na 18.01927488289532 14.765757284874763 9.751812395939515
Na 9.518193785337438 15.58673142686635 9.12046627137291
Na 18.23017263647978 11.218611322143552 10.451040049387476
Na 10.209625629964101 9.605310862495003 9.82738122117799
Na 14.484375872434159 14.837641903236982 10.334277556670376
Na 13.303968594420967 7.825588755208247 10.641251983593122
Na 15.854348342967725 18.19755377730025 10.598130686003831
Na 11.436933670050646 12.828957832290374 10.395428441312255
Na 14.655593000296099 11.132323173047665 10.883829473753286
Na 7.871584457830099 12.674406770595883 10.844882555202972
Na 9.602707203872882 18.681958402502648 10.984929930817133
Na 16.594181428188875 8.39084712885005 12.18115288901513
Na 20.286272255241357 13.362086627960739 12.449270843954904
Na 11.482327384632368 16.03658336276927 12.196299182888998
Na 16.851145924431837 13.43293530398713 12.940863043216348
Na 12.971207758061238 19.26760914498776 12.521630340907736
Na 11.855301680682853 10.021386387525762 13.091026388763517
Na 7.912898817665567 15.813207043656842 12.670037718024595
Na 15.302073897597252 13.883898816019316 16.415177397985083
Na 6.440134230093841 12.863377148757168 14.313257010430654
Na 9.845488500400194 13.044450538613642 13.875350400583677
Na 13.358366206334404 13.289003850262862 13.414073897238294
Na 18.75378340121666 10.638321574476148 14.192776848986616
Na 10.04508034715996 18.152119675941528 14.644068147906346
Na 14.898062042247462 16.499407374741203 13.719612431142927
Na 18.843986677102283 13.812743597328012 15.95523976629509
Na 13.798386041294338 7.265770592140022 14.297302593272462
Na 16.2637701068859 19.662667800594193 14.026310380470498
Na 15.190353888952151 10.543537355861472 14.701999886933082
Na 11.071155627931839 8.587833502483637 16.39237382069001
Na 8.404286226338728 15.246173345422871 16.31330891855803
Na 11.983370723862548 15.462551717086921 15.876865034364828
Na 8.703977573930427 11.713482310467489 17.067513889628366
Na 12.27396328024401 11.857423017685536 16.540979056088613
Na 13.45229720149732 18.70604099190629 16.154243109016136
Na 17.088180141627774 7.891779084474136 15.923217702575132
Na 17.24921743913129 14.494320206308878 19.228209899000735
Na 16.6767236853704 17.237708856742127 16.846947767907682
Na 14.253252152052669 9.061750842119322 17.904219198200018
Na 10.596173099816117 17.540934886655844 18.28674137614031
Na 10.87867679312801 14.018965548281654 19.075626124954326
Na 17.214632012236425 11.083973691296944 17.759485627725155
Na 11.169334245748122 10.37714625461297 19.510777277030687
Na 13.90108866971236 16.07430580402684 18.953285469723888
Na 14.228475908898062 12.40438236971547 19.54942834004933
