51
Energy = -53.65548978 eV
Na 16.778438759771255 19.207219559938938 10.611721283864904
Na 15.988420287402134 17.192722281712772 7.817035458223835
Na 13.908189749873008 20.098925876439356 12.40767497423344
Na 19.91308207631181 18.492584087703772 12.478334004318716
Na 10.857984636302348 21.24555346443956 13.849868455936145
Na 19.36328565468366 17.344885488396287 8.999677416248877
Na 14.133587821807678 16.947794569542886 10.981425123264772
Na 11.004632504342357 18.222454584837756 12.038542252071458
Na 17.01209234248688 20.23145507740756 13.937107710033015
Na 13.959887498266179 14.153199207541071 8.822462097603482
Na 17.222485983650298 16.458626201233812 13.039285960324024
Na 11.176022665884759 14.874902164480837 10.687000937537418
Na 19.187339959892192 19.09581977850703 19.260382024483135
Na 13.727100427800991 21.025025724801036 15.756717733107909
Na 17.2596044491153 14.719340003711727 9.95203792711523
Na 18.93229896943195 18.22537002882678 15.883972532416921
Na 20.402718726170235 14.983789189409942 11.34342115976552
Na 12.722069371603034 11.498753552550067 10.910675844513483
Na 11.24791602330954 18.344949782354426 15.834472026282102
Na 12.395022392015786 15.631534797123004 13.97731044409351
Na 14.909629335253776 13.898152112644219 12.528214530692344
Na 8.86325753213211 15.76421430763766 13.187986294099497
Na 16.08754681516506 11.54778875634678 10.061882541543314
Na 14.940069632285756 17.761035540323977 15.325453645613218
Na 16.504829553803656 20.255326166316213 17.55074134778424
Na 18.325100801633727 12.671610835048455 13.059484053715876
Na 13.303768030670096 18.927184012684087 18.70261902715878
Na 20.390255154351756 15.268199162412827 14.658914695310047
Na 10.36488073518479 12.597064634600695 13.247715215776486
Na 15.48879083237577 10.583419794665847 13.225768848935603
Na 13.358606364867041 15.535309010914599 17.283768162134013
Na 16.306318566670164 16.917057187734414 18.958198984924838
Na 16.775079256508782 14.777483305922784 16.025026498656388
Na 20.076324584525977 15.793549014239442 17.949210171240054
Na 10.323669804366846 16.778739271154883 18.880087836123643
Na 19.109933863301155 16.373697540873227 21.275683347977882
Na 12.155210505231668 9.50448957435757 13.686830602621626
Na 9.733612114992894 14.57919227680917 16.276019290832767
Na 13.340176525074105 12.575667390170715 15.449064838004215
Na 18.334442660945378 9.502418403108626 14.914609055960376
Na 13.11549365266786 15.81102508463759 20.684125595030928
Na 17.94562929098754 13.47377232858552 19.308450050388505
Na 19.56728334335388 12.402394506259565 16.483908131538204
Na 14.643754992829875 12.714322525372854 19.780419461622778
Na 10.278757792338594 10.953669239230877 16.33157261818869
Na 11.33079228712863 13.152772288899849 18.966864276045705
Na 15.062048403056659 8.366021149266095 15.753845768756896
Na 16.151543500150517 14.850724862756252 21.978098918560587
Na 16.27401195891737 11.394186329247962 16.99741694854331
Na 11.657006952939797 7.472837683367832 16.441444088256517
Na 13.13747605383241 10.143204291601338 18.137713531424204
