50
Energy = -54.21173238 eV
Na 18.467881705182084 16.03179186100249 19.632014279954028
Na 14.825003681603874 14.760615512018253 20.116478963458345
Na 11.327364717724025 13.335153511392594 19.540405030154986
Na 15.633898759200425 18.24706160630145 18.98311570031109
Na 17.332847380541807 12.556405093001816 18.742599353557168
Na 7.850929401861404 12.999618542822367 17.710793688949032
Na 12.532611701046246 16.74997436516568 18.41304740008332
Na 20.931504891673022 13.895188652249457 18.00547759870954
Na 19.871466187021976 16.724962105889215 16.338691966951263
Na 8.790032215780995 16.366534346466377 18.612939200134413
Na 17.227347662174022 18.86975144698288 15.72420566974579
Na 13.862440769185596 13.218886333588838 17.043454962815417
Na 13.808240276054683 19.59113177743655 16.008324436125573
Na 20.111531134549196 10.406590632715186 17.905410319955315
Na 10.828294464863703 10.97646532479221 16.766204914690213
Na 16.540519349066447 15.439498104033714 16.836680875932835
Na 14.000462742775794 10.403765568242411 18.80107439061722
Na 16.845003424917344 9.984268591073128 16.389567708427258
Na 10.63356231715052 14.583324314013028 16.29741394207656
Na 21.563671531869275 15.0222663551477 13.945713488594434
Na 13.706453556873802 16.273443945516973 14.956018486165446
Na 22.30693861263338 11.787335006274217 15.247468744739985
Na 7.478238961817769 15.79078588317272 15.209259728373272
Na 18.919578707214338 12.819062105903164 15.299122492933293
Na 10.360806749449608 18.11888122625652 15.807963487208626
Na 15.662412158624981 12.910253763239988 14.134438756311269
Na 19.836300858854617 9.298229032502018 14.485943821653196
Na 10.587499177714633 9.639247889622592 13.334474738460742
Na 8.440411824586656 12.543339879069727 14.172230054905471
Na 12.171994396258794 12.814233730160808 13.744176274486351
Na 12.122326578016027 18.878577922929246 12.69218220044047
Na 17.672760393664763 15.694141502771243 13.457840279491347
Na 8.378672640282549 18.499961291086397 12.904051491046904
Na 19.763336976817758 18.22923542954815 12.8824693624277
Na 13.788261709273673 9.876715631485839 14.915953160694444
Na 10.651570119105406 15.719105433449165 12.856234349810784
Na 9.949867722669984 12.206904138696789 10.971211396326376
Na 16.916435085261856 10.075046612577445 12.62857729285066
Na 14.36163834603719 15.31186773724395 11.756585696814321
Na 20.25663951774873 15.274513550051402 10.717147229796618
Na 20.36919168946931 11.90402352954665 12.101540381559506
Na 7.771458422120355 15.056942066316907 11.284001889728133
Na 9.981340667972804 17.766495715683988 9.85189148626155
Na 15.659626966190299 18.760557690269906 12.652179379141575
Na 13.869689775657514 11.726686318412385 10.918267175840512
Na 17.28851395448902 13.17086744939511 10.832146466989592
Na 11.664883278606974 14.715260746972405 9.529819789467007
Na 17.1938082822398 16.933919919205795 10.030290262634292
Na 13.687021164944863 17.822944172531486 9.47497663663436
Na 14.995717853033915 14.4412012865424 8.364347949690464
