53
Energy = -57.5847821 eV
Na 9.498862690403651 16.389047274942357 9.813846813472088
Na 7.3317355332591285 15.031061972098065 12.843368730150779
Na 12.609401651123516 17.697983414959396 8.128921172696314
Na 9.797393444903486 13.419212846152222 15.209308980464822
Na 12.304697186623995 13.846925807530125 8.271663399285602
Na 10.23624073114248 13.215992785849076 11.364786581979342
Na 11.059786061576636 10.611934369198085 17.395709168474284
Na 8.28660883702535 16.750675408051443 16.026352516636955
Na 12.878018163536002 10.845639322326612 11.084718583297832
Na 7.962472131298731 18.53644714383931 12.575096408471387
Na 10.467778245047562 16.257033268591414 13.221315057496183
Na 15.862197825929345 16.095683727728908 8.669169614354487
Na 10.393580407459105 10.39118612561026 13.682578028539359
Na 10.104786276666015 14.423552739329251 18.69084244703392
Na 15.533065301596965 12.90033484124543 10.173000692007008
Na 13.210360980053524 13.19260897451696 16.99255484603375
Na 13.308408234477943 13.536507347846879 13.519685256398093
Na 10.412358458649527 18.294988078141703 18.682914767188734
Na 10.686874151056596 19.436009889585932 15.13361975076239
Na 19.058177704873223 14.299194633790833 9.5558224106774
Na 12.903011585304382 12.30488185487462 20.413253434382938
Na 16.184024872826175 10.194034953773794 12.434069893598918
Na 11.43440554132459 19.18748521400438 11.376724954255149
Na 13.711280003422813 10.190169791152117 14.876955067301504
Na 11.877349309209807 16.26588958735277 16.379169577317835
Na 13.000827694320272 15.7544087728224 10.861958684725591
Na 13.63553542280034 17.526903510107513 13.830006622887321
Na 15.037510173814876 18.845292507667992 10.841082056834406
Na 14.99145313438365 10.225462356528404 18.186460957557216
Na 16.15402964724271 15.482029452686172 12.495683311558002
Na 13.838997824992196 20.942837758620783 13.831421069069943
Na 14.102354650879661 19.076972475259364 17.221953684175652
Na 16.518315446671195 12.7434084529634 15.49611509020338
Na 18.673512563555068 10.720565616015717 9.77655458413999
Na 18.48669235107756 12.840831322056454 12.583126221091462
Na 13.292391044066688 16.05031971081301 19.609129531095768
Na 16.794193834935506 16.799802430522607 20.179948153413747
Na 16.006782283666944 13.540814178862865 19.10364643679468
Na 17.601739389435682 9.489254734247313 15.724811475218265
Na 21.699655012160356 11.918267504761804 11.323809241704955
Na 16.28352904583416 11.006794873724006 21.478186114881765
Na 18.76498737352143 15.899003263277068 14.721931257959781
Na 18.610121737368818 17.473468178812332 11.208591033048522
Na 16.778217506438235 18.89024646483202 14.099919577196175
Na 18.714889916484765 11.261018389922766 18.667861866905564
Na 17.979418449892066 18.45156846938123 17.373865681817794
Na 21.27916849461639 15.10733455250348 12.4794250490394
Na 15.591423734005055 15.983054318497347 16.4855927913045
Na 19.817323717565017 9.499479176503538 12.982735662681202
Na 15.166227812248671 14.346179437273744 22.45136671463304
Na 20.442077789352293 12.360481457212567 15.36902636643011
Na 18.634841279849713 13.786210048878372 21.435006794098488
Na 19.11532340858908 14.840397628142961 17.988250517735096
