5
Energy = -3.72907118 eV
Na 11.092953391981547 10.164622511885389 9.447170948998783
Na 8.842677428879501 8.476654304778311 11.547065633831306
Na 12.15056786804974 7.681506880725714 11.531245252735673
Na 9.853418868665859 12.498212289434864 7.261592961629682
Na 7.661741558006233 10.98109246473138 9.367715199029098
