55
Energy = -58.36922688 eV
Na 8.170311654481328 7.90287626155701 5.661541397294176
Na 13.56886009117845 6.288915029289417 10.018036044793375
Na 10.190898518982273 5.813372091100976 10.905391583563738
Na 9.864132420528986 10.905047784651035 8.209856261528506
Na 7.7682144852515425 13.681939740113958 7.483553033051438
Na 10.695091137079936 13.210776834996233 5.448774192600846
Na 8.053710899694332 11.261768991963478 4.796800137661353
Na 5.522234596189372 11.506291972421458 13.499554490174495
Na 12.13197732288602 10.112505157566696 13.36155940262682
Na 12.551333520354047 12.956450786019484 9.152506949944883
Na 14.631533919094318 11.641621992705623 11.51181630821638
Na 12.621112323200606 6.485280817428314 13.421208330080098
Na 6.504317200058905 10.215870088714485 7.6972215446715975
Na 8.127053517805564 7.814448866541054 17.200967309843545
Na 6.083263826674214 8.211045824434832 14.384513975163141
Na 17.64696706996298 11.97498535753388 10.022736530175013
Na 14.64067821734295 16.304947495660787 12.425378012407405
Na 16.850156009805396 10.483207276135934 6.989058679812548
Na 8.919938858802867 12.643306132123326 10.946339687921071
Na 5.840720391158603 14.855507840700026 12.772152825073535
Na 7.577956703429743 6.95279604093702 8.79015853647322
Na 12.070801945326274 16.90057251202881 14.624963440895474
Na 11.15835149707569 9.593983077969915 5.309478872114154
Na 17.151238828949616 9.965947304956062 13.002812377224954
Na 16.01761075754124 13.76940893326074 7.597054157345431
Na 17.186275102388187 15.485335279808607 10.350594440630136
Na 10.674636333700455 15.72502454630288 7.970220414338361
Na 11.81612864636301 13.488989076652128 12.552981914435634
Na 8.956717072967402 11.216019786380667 13.946711346487401
Na 16.263323242226086 11.660390358759681 15.897539520764814
Na 15.941321143631647 6.737921480858355 12.515498352365935
Na 5.861111972436944 9.131187309289102 10.963199092871298
Na 9.50570842863784 11.038248235994498 17.257356316113164
Na 7.346238056470289 13.628995862056845 15.790517653017618
Na 9.375358691265319 9.216671490622097 11.225585493601171
Na 14.068106146821583 8.451894203941748 6.944111937402183
Na 5.661639737492608 12.506426603608746 10.15980792063171
Na 13.809277501074444 11.752951675146647 5.911038943197327
Na 16.901586639676164 13.57306850588282 13.151792564635612
Na 6.816904311357522 5.947424352618739 11.927470966679389
Na 14.760195739442349 8.60270610726818 15.195496913489668
Na 9.283370072467134 6.9064131948086604 14.089894518124852
Na 11.47430323864814 8.078794318494007 16.38893917039371
Na 13.978640733668867 16.151409192482124 9.07187485194477
Na 11.312510702587414 16.68914369100999 11.268336782315123
Na 8.08930464825486 15.80702358885385 10.256919965045524
Na 12.905949039840054 11.254874674064993 16.589782414581077
Na 8.889412303447155 15.936676878520252 13.708815562868526
Na 13.417723773891442 15.210439486916982 5.796121522617691
Na 10.798989542437418 14.007433844439204 16.03337758267775
Na 10.984486984770303 7.061323116251513 7.768467161285315
Na 16.363459299925662 8.62057693688027 9.759310662761134
Na 12.662815279408507 9.502940876631824 9.828744279825097
Na 14.1566176339606 14.25728538934926 15.270410509625902
Na 6.053147267885344 10.573260725295583 16.849372144614115
