53
Energy = -57.96504978 eV
Na 15.782324336521032 12.472109028776037 9.616048622982976
Na 13.120222174666248 11.621662262493068 7.355531481510053
Na 14.982591916481223 14.913909763850869 7.108385338045591
Na 11.302538100671287 14.64490085349255 8.110701349485254
Na 9.575761027524285 11.372230796350594 8.271546133163836
Na 13.039733956381363 18.006639963616948 8.081942437187887
Na 14.522953001732235 9.717355650943777 11.782787828256302
Na 18.374124762210446 14.68785221294937 8.505582983219863
Na 16.4953251575804 17.745025281593637 9.315552051500147
Na 8.758672850077067 13.68504037779785 10.956093183803358
Na 10.547450387905254 17.193819938893572 10.710393941892265
Na 14.523648221807095 13.098642817134518 12.924968807857855
Na 12.06035742680707 12.234127239198173 10.614050426070856
Na 13.840976298170869 15.556630107105667 10.445232738053306
Na 17.71133183949593 11.511361212201198 12.617697602011035
Na 9.18436091329656 10.110940744266037 11.696736212234574
Na 13.800877864164967 18.98840364128337 11.515363413113569
Na 11.83200870410019 8.859554025820275 9.544478496606066
Na 19.821811655577648 17.209130367941473 10.79280961038505
Na 11.872728354047505 10.943806867421905 14.05840604849251
Na 17.200906952211483 15.175216592819003 11.847765118752983
Na 8.163437612638978 16.224398945778567 13.461101299201209
Na 15.198310700477801 7.375945725391048 14.374133987047097
Na 20.364733229073 13.63941939663735 11.56495765254219
Na 11.420562559237736 14.868851613227626 13.146760051646025
Na 17.232550809286312 18.580031937448318 12.909863601203885
Na 6.407542084333326 11.823843582666806 13.249000996164003
Na 19.722278867891472 16.177573670022547 14.327279073237545
Na 11.739442523315844 7.608227280411494 12.994735223708824
Na 9.793080678866604 16.133844575455658 16.695167779026384
Na 20.152405469145823 12.588764437799636 15.093397039643719
Na 14.511820849300205 16.538515404310303 14.04442955034567
Na 18.402669059691846 9.274015891043597 15.316377991698642
Na 9.142823274465897 12.942286889241371 14.962308148647018
Na 6.2361579173858965 14.556781213037858 15.930401450099614
Na 16.877931208181213 14.086233471127915 15.348686750534249
Na 11.26636819921995 18.337655721736596 14.23201565300445
Na 14.515749725296581 19.865348897042473 15.006806702304562
Na 15.214216763968642 10.756790421048725 15.379368773152628
Na 6.734520280876615 11.133392243419191 16.835579281142834
Na 16.902283971181106 17.540213996643065 16.501950275765378
Na 9.032812601513857 9.088089838360755 15.105839973978204
Na 12.971914847326433 13.768125125897857 16.15982563298566
Na 19.25612279298053 15.043175885100576 17.732320411997662
Na 12.492335203567928 8.429315699452335 16.52675091212815
Na 17.644236024944504 11.70296327165883 17.878732734588176
Na 8.25753443753141 13.71905867612601 18.77323315659923
Na 15.947002521755726 8.365972874608923 17.848117082267656
Na 13.182737480267148 17.33348821198544 17.35813939557401
Na 10.488761436384266 11.182708315793185 17.746870415881446
Na 15.537455083348126 14.818994159179663 18.566683135997355
Na 14.000795189891024 11.34125251310177 18.66321180373415
Na 11.781163327199414 14.348823001266895 19.33634287150145
