51
Energy = -54.9500098 eV
Na 18.208172598521454 8.37395598934727 16.953353403197504
Na 18.46386768410468 9.159867309545888 13.344745947823407
Na 17.09321001768847 11.59737169597341 11.156951833309227
Na 14.393674937301684 9.56573517940141 12.393751855368517
Na 15.50367167293406 7.326575347616506 14.898864550510988
Na 13.66606849394591 12.012400489670757 9.806301080058825
Na 11.163223926027863 11.224430974058166 12.616602290109887
Na 12.107326392829433 8.687117164737824 15.174343832201366
Na 16.53646908241824 13.217350431085167 8.019915345999205
Na 9.232935775828436 11.590876405838873 15.719146743862993
Na 19.128048856405886 14.589000219016453 10.405836804608692
Na 11.364072343721674 14.445277154767524 10.892841138282117
Na 17.39724365103473 11.339829955711895 18.715525656381413
Na 19.724851257182628 11.503593069454729 15.849648367902061
Na 20.536290980303928 12.215271908899947 12.507299035056741
Na 17.6304356381656 13.789649740301028 13.834805714017897
Na 14.592494121641124 9.009100995906607 17.969557048441754
Na 8.247623497927098 13.520453862773904 12.741658929772079
Na 16.140805497149163 10.829918991426242 15.28760238305765
Na 14.124818940813427 13.32269604563234 13.387763377968792
Na 11.039839901218574 10.03988437185665 18.585558149868593
Na 13.542558433363213 15.36665264052226 8.065537003350245
Na 12.783758055074033 11.855071240558724 16.249462771734443
Na 17.065239417806243 16.73611337731376 8.138165565422002
Na 15.558540014129552 15.133114717120424 10.919554697335291
Na 10.99897930489556 14.53690544519475 14.543779650405204
Na 13.86310554822365 12.110585787389084 19.780930306634172
Na 15.466042041141154 13.985488428931848 17.00628192946023
Na 14.514351419284077 18.547820103695464 9.943370329129007
Na 20.212862658904584 15.969678391102804 13.985640432668184
Na 13.110907151689206 17.013023913833866 12.937001128449179
Na 18.827547281388245 14.630732582957801 17.32394616230495
Na 13.02803551832723 16.388030711757374 16.61423687129233
Na 8.168918233874107 15.445748585555167 16.053937974478274
Na 10.674729470497837 13.738203970119546 18.324037408934608
Na 16.78309065197633 14.380130490306511 20.40456306485095
Na 11.144701315134583 17.73162681741693 9.60228971513181
Na 17.898238319570172 17.742274820630602 11.471373724209576
Na 13.311395252571927 15.677596647119762 20.114885611056867
Na 16.39458082359697 17.008305356606975 14.869091921553716
Na 9.215396793368704 17.00460010576695 12.4992903549537
Na 16.210950769425875 17.25109661683585 18.540602286355472
Na 11.653232432182875 20.074681178226 12.225534966819541
Na 19.002106884495316 19.534088703862697 14.216339479728713
Na 19.386323896506514 18.04521826811804 17.29939809786945
Na 10.17891671541759 18.443294892056972 15.425368001368778
Na 13.350740467128237 19.801952254103917 15.47536784902158
Na 10.189612109790088 17.2102353897735 18.70006078016995
Na 13.274071553269321 19.16569490717319 18.910105195890075
Na 15.607798699516623 20.176206432654347 12.927580733640356
Na 16.538333246835442 20.258135312660524 16.794886404215017
