54
Energy = -58.99692322 eV
Na 20.188141472289114 20.550617261337635 16.715022133432377
Na 17.53491271394799 18.743899736006597 19.002625071083866
Na 20.313375919116595 17.08360364153664 16.755323671877555
Na 16.920047212378112 21.948525909121376 17.108147252619144
Na 18.516918225701044 15.061947244365633 19.127361806061856
Na 20.10076628619477 12.674367887677663 16.455712209545226
Na 15.844380468013526 15.325503943157798 21.324743905876463
Na 14.833877966044758 11.803535731721317 21.44832579531939
Na 20.141906637073294 18.72579601465383 13.356238569027969
Na 18.148375399393977 11.526710769024888 19.68850392878651
Na 19.264767397666166 9.685446117398172 13.972639535131492
Na 18.50724416658346 21.890287343585808 13.886267214258552
Na 14.071217502990546 19.818248409919576 17.224516929943412
Na 20.652223829345928 15.29331506699077 13.802100229881768
Na 17.19732388286921 18.826314809131304 15.410894101862263
Na 13.728452006451752 18.277971233010213 20.6013769904226
Na 15.124129365160291 16.489664831541663 18.084177335364473
Na 17.442209120512512 15.08286497302741 15.838169909684838
Na 18.81580305898266 8.830856338714243 17.426480980799678
Na 15.352745478392755 9.275458037825498 18.81594330698246
Na 14.900123308570766 21.305529937020996 13.969037746001085
Na 18.35342739452044 12.9300058256183 12.820338128919639
Na 17.400875898804344 19.840997027467964 11.171540535676177
Na 12.422525930808233 14.708096380788113 20.08892202008575
Na 19.350412134210487 16.170334882890046 10.491754457986287
Na 15.34608438632986 13.075774789954886 18.353448844274144
Na 16.901042908564307 16.5005662084999 12.644839533458919
Na 14.0723549779825 17.002544833370973 14.906898335714668
Na 12.101947766643521 11.214105978579889 18.9828198758989
Na 11.494997284670152 17.253188007742438 17.66580665465058
Na 12.713111330433078 14.158310283790678 16.503310005686345
Na 17.026544566563555 11.324037400374685 15.944894616993661
Na 11.73009202768869 19.483443090471656 14.230756777218652
Na 15.68140757917046 10.350981900598994 12.609822481495119
Na 14.203676952419237 18.59597557097729 11.644167516502401
Na 13.674497824955159 10.763208719404515 15.892183318859349
Na 12.405415462862262 21.438521966774573 11.216184857348658
Na 14.965213369541337 13.453049330032862 13.972457589357392
Na 12.48407076846902 7.836866831218797 17.13464914924235
Na 15.771460158480085 7.959160487752316 15.368540161745665
Na 9.590950621341591 13.775555901510362 17.51015197192581
Na 16.141635833179148 17.21726393432398 9.042605467860318
Na 15.948586707635613 13.91467976769811 10.317153291834217
Na 10.387797965770122 15.932674120886725 14.338513007020346
Na 8.135047451448022 12.951128876059999 14.160548148748289
Na 13.019714181992057 15.35198740577726 12.029276980700072
Na 12.350226907631782 8.91524338349349 13.351324919021486
Na 10.786568219268515 17.996200864838553 10.849755091264234
Na 12.950077334987954 11.96939507684399 10.72094949653062
Na 11.413305445643084 12.45629887573121 13.724902169780126
Na 9.988188955354845 10.378852921023952 16.107576443600063
Na 13.266657074230064 19.323783891082357 8.419483862568129
Na 12.888030597814037 15.723662271898034 8.706863545316294
Na 9.853733921639428 14.282720482606882 11.067310272380775
