50
Energy = -53.44460078 eV
Na 10.64484144758359 14.800367834909485 18.431207485078243
Na 10.509411817484335 11.618553774944765 16.47046989056937
Na 12.7925510059633 10.426568821221672 13.90416092005019
Na 11.321115351544982 17.897318717845724 16.57854579403261
Na 11.521292446679956 13.785689350159197 8.714240991922663
Na 9.543487744098071 15.278602895079215 11.20445898262316
Na 12.181594137243165 11.842725504150309 19.6865452986537
Na 14.891041864484908 10.439145633531611 10.962861981486821
Na 14.369175153429081 10.294541131799866 17.064612431311094
Na 13.294299351900984 10.928250989091893 7.651978722609839
Na 11.232060486891235 17.985829270971507 20.184624174391594
Na 13.027246338323858 16.72552275105176 10.542905079409145
Na 13.982423257198938 16.30414240934849 18.41273252609657
Na 13.251490462055992 20.390342928003303 18.239474366625362
Na 18.219614062729395 9.036346438588836 10.974970038604507
Na 16.85710067142801 10.695190814546274 8.06141045220497
Na 15.930396576426189 12.545429215948857 13.846228763619218
Na 14.997377147429349 13.693828601601465 9.212235485885508
Na 12.470881756782994 20.446515258507173 10.978662671923486
Na 12.761643224362137 13.592656526086682 12.217084444781106
Na 18.15470992041265 17.795018259488746 14.074187103203498
Na 21.679804569750914 17.2068330827647 14.108434117875449
Na 19.570798989410388 10.835168363087925 13.738501786020276
Na 11.329022233760172 10.322678494697312 10.483120290197908
Na 18.100623129235018 12.567288443041091 10.874189338186953
Na 8.52412835246355 12.082124734096901 9.508701484078939
Na 16.257949696179484 15.54427119422828 12.015613319904782
Na 16.402533825884287 9.120554654204234 14.176049297270287
Na 16.722786628832942 15.11367084019127 16.309895251297785
Na 20.123901802456334 16.310808997165164 16.904727783924045
Na 9.420100625219467 12.0180742378554 12.938472594839014
Na 13.742608364444257 16.446189398995983 14.333288604043737
Na 15.302885811829185 18.993141673855618 12.335055363262844
Na 17.79066428726875 11.616173039030505 16.73936233306377
Na 19.264891845309478 14.40070058854622 13.788937899517443
Na 21.161769857511292 13.037709542869571 16.349588034127546
Na 16.6696685532952 21.39814728709107 14.829832783109028
Na 15.630575157526966 18.584740809908684 16.33534098698754
Na 13.351592805573103 13.528126342765146 16.228582149756505
Na 10.812728405736816 18.09049108805944 13.013014078035102
Na 13.027790290405223 20.493122197916794 14.59576552740005
Na 19.491195707338978 19.76648364290199 16.625841443345042
Na 18.89298801892691 14.017148779703893 19.25794283982507
Na 15.442607970980225 13.050095874388521 19.222619762617633
Na 14.757493784618848 18.618844525753 20.95805781915621
Na 10.313379093827347 14.952567616861874 14.791517331314244
Na 16.39838557678473 15.464932191505595 21.586679626859834
Na 17.643720144280344 17.496631067555878 19.052246253799215
Na 16.809689082097286 20.956400337710015 18.72699129843402
Na 12.827961294510779 14.940831199551106 21.427555236701373
