53
Energy = -57.74812737 eV
Na 13.304704668819562 9.530130010501505 9.580585782894516
Na 16.570959552036218 11.408535934544005 10.07971987831464
Na 18.812025979168382 14.254186227051191 11.156542471646873
Na 15.871944443669582 16.056956731565037 9.872448173591323
Na 17.885496610708067 11.369963614075528 13.418344511524683
Na 15.545755977602315 8.336848171081263 12.184679401157107
Na 13.614140422556144 13.270305708930753 9.47464013894799
Na 12.03379294890596 16.41913987680486 9.781319130642084
Na 10.436122694538042 11.912643717166228 10.20113093493712
Na 20.98382231522156 16.93684666687324 12.391879903072486
Na 16.964195936006735 8.543511470668557 15.47728768450585
Na 8.740617848614484 14.933240401369163 11.367958504255242
Na 18.270366649613006 18.7967506024718 10.732431354062287
Na 13.75910111820787 11.147557914211536 12.504792100722597
Na 20.10026781300168 14.10275099072957 14.596462215468415
Na 15.584870151012142 13.9995165495324 12.71812369136541
Na 8.657251014017692 11.957507012603157 13.48440020061694
Na 14.447271452609206 19.412934436750202 10.308932023283925
Na 14.038976568709396 17.15998039859661 12.76187802062232
Na 18.62298415077434 11.491100550884099 16.97470248042091
Na 15.118407443744687 11.602220504008667 15.764515032998517
Na 21.403476459738446 17.196034920881043 16.007387405153768
Na 10.989827772261172 9.074983740871284 12.471274692184311
Na 10.58217825423277 17.668197431606526 12.895322405347367
Na 11.829646479763717 14.186258602755053 12.510763997170887
Na 17.57254842174265 16.83951507811786 13.423378244518915
Na 12.745583008556428 20.502890363297666 13.708198186532059
Na 11.624417594099357 11.838774282197132 15.306792385431017
Na 16.852727914953462 14.485261959531146 16.014021237215143
Na 9.590351993986753 15.043504395412054 15.23216217766624
Na 11.916546168811443 9.663844557637487 18.214807617081586
Na 16.330364769444383 20.465745861835174 13.203104514350429
Na 19.828295195252593 14.84545197276989 18.219365433070042
Na 15.530412549377218 9.815159815801428 18.60381855874126
Na 9.422240792627136 9.20452799532669 15.738759281310564
Na 13.224048358616857 15.098888508466244 15.550540325331077
Na 11.428005919561313 18.331324006900502 16.31161680133217
Na 16.614951026692605 13.325817618368989 19.427120981126215
Na 19.680830095953123 19.73623939283759 14.222304514378708
Na 13.324947004438 8.487355547802773 15.164181180986581
Na 11.081031554550092 15.57903142604456 18.628912811478166
Na 13.239465654044048 12.891789109677582 18.603101878066198
Na 18.01410226743405 17.599757915514203 16.87150413231777
Na 14.917555453975972 18.545789603486796 15.810599611564001
Na 9.30720007600632 12.332268840837084 17.74978673247235
Na 17.626286015315184 16.66598335976518 20.44506295462728
Na 13.603281060131335 21.333486380081172 17.219270938547762
Na 13.911496440449895 15.506902537506505 21.334818054140158
Na 12.690114913839901 18.734174513161832 19.687334146533132
Na 17.355929262099494 21.205844838629805 16.5896076484301
Na 14.810324525054144 16.293728995500643 18.31446735507292
Na 19.940879363963393 19.231006820808627 18.87079492185539
Na 16.06347953158869 19.62666952423733 19.430155626638673
