51
Energy = -54.69721441 eV
Na 15.627663636321033 15.021220338214773 23.99784759033641
Na 13.193905346918815 16.990621237361786 22.322303904748935
Na 11.182535672146535 18.52396100026083 19.843861278978224
Na 16.91668014999263 18.130430192814718 22.350697340495778
Na 9.613003677149413 21.27466298712476 18.411974951602392
Na 14.783162047666927 18.441772360118712 19.412954229758014
Na 13.090313295450446 21.51429660490088 19.18366646811338
Na 18.251704766312077 17.939442066233344 18.880342212014824
Na 13.376569132828175 13.2301204617701 21.591156764944646
Na 17.180016190400277 12.387354870200799 22.065519517261443
Na 17.014856989033742 21.092875678311042 19.99114231741204
Na 12.781145500485199 15.320407252991602 18.711943716995478
Na 9.874874302350507 18.045382204550883 16.620230514013894
Na 15.926833024788253 15.38302426550536 20.60145166802126
Na 19.11527365808478 14.499331065476682 19.408971730349943
Na 11.943951376561467 20.894295213722142 15.788659369584416
Na 13.477830535586298 17.7487429861593 16.275974667146762
Na 21.679761331330695 17.59172908641634 17.918448129592672
Na 18.94054918601113 10.79533211945388 19.324814751432704
Na 16.308761229720663 15.6251400114353 17.138670226790282
Na 12.19317254953769 11.94014242371626 17.681994467607254
Na 15.730788487149738 20.75486490211061 16.712768376577497
Na 15.563076426084105 12.413415099974282 18.777862630502998
Na 11.213078347210194 14.882297471044057 15.365795765042796
Na 19.399237103449142 20.58157682622319 16.97358637024421
Na 14.410302199581366 13.573739849130913 15.448180060197327
Na 18.043604022125148 21.173054904399397 13.569216722632762
Na 20.877478561913087 18.765526229563438 14.317351968630168
Na 14.818137032398706 16.32950208196926 13.437475935481599
Na 21.604315025843945 12.933088710411626 17.45114392236932
Na 14.625966831090816 19.876592139068958 13.374960808185282
Na 11.46775533584547 17.89523605291567 13.313633931133523
Na 20.32581109501527 9.748216153104439 16.155792230761783
Na 19.871275176975416 15.635264455526867 15.924708306156505
Na 18.100588384246276 12.530930743790341 16.330188847338206
Na 12.069590151992385 11.46276599073571 14.040455264630818
Na 15.305954494212536 10.233753476798029 15.672945505679639
Na 17.453943094440476 18.095067269601863 15.157614421760968
Na 17.64304280371871 14.48234933606788 13.495320837130349
Na 17.788398261382138 17.96089697098787 11.67030540970242
Na 13.822983703261956 17.846196591884915 10.429513643821096
Na 16.052611892290898 20.78521583686435 10.255485812862041
Na 15.223359209461446 12.123375377924237 12.302046805360922
Na 21.008409735698258 12.565199891073103 13.914769708841826
Na 12.449267805929624 14.495346554569007 11.87602283255826
Na 18.187963524834856 10.466821759635797 13.357739434125218
Na 20.730839136396952 15.792597497465222 12.348542793145505
Na 19.396913487474052 15.911677234578956 9.042244282784754
Na 19.17344924390906 12.838027107119444 10.768533763494991
Na 16.063117641330084 14.943389548871444 10.218335366237884
Na 16.58953606370079 17.96665362635336 8.204992214199242
