54
Energy = -58.33478572 eV
Na 16.461828036873523 12.002343733055266 20.944594257656103
Na 13.376449895088562 13.751757010536904 20.20002393034816
Na 20.11935399016479 8.437846345698958 17.23941806647569
Na 16.78582808179091 9.070221104226668 18.89389332810835
Na 19.248442232671902 11.676815157746223 18.276739917111275
Na 13.350422081593639 10.27459550818666 19.567590133163062
Na 18.165287080003218 14.908200498904735 19.517655375965298
Na 14.943224073253981 16.090055596305177 18.335421826149663
Na 20.425539383615096 17.532604905147554 18.556196658574386
Na 17.423583915025386 9.67081118884136 15.492081583670178
Na 10.122950137212783 12.498343788205355 19.097260522217262
Na 15.8857590828204 12.568101381735472 17.63618218461485
Na 20.743114039121796 11.19120150172885 14.829793483825501
Na 14.04473783404628 8.929478518811635 16.391714465657152
Na 20.952769353524523 14.396057089346828 16.842485596297657
Na 10.561363607130039 9.418628659360838 17.143232813997216
Na 16.997327981335726 18.68091113736431 19.210234267807614
Na 12.536324226335179 12.381304280648399 16.66596227517288
Na 13.04630983263164 19.014459198098894 18.514550546226356
Na 14.742972928201803 8.646109944390949 12.762114944261668
Na 14.833959732721217 11.789873103676255 14.124223483773124
Na 11.615422208654248 10.201163493249597 13.73105908837336
Na 14.669146056591163 15.2081617206526 15.004034262378735
Na 18.05514529643905 13.370561316358122 14.886584869550768
Na 17.96917037313695 16.593158320714515 16.39784971403091
Na 9.109258584895356 12.454574857788119 15.606922786653199
Na 11.424854024759433 15.554708922207357 17.43943424133944
Na 8.148909625375726 9.979565745007045 13.279754159310544
Na 9.772077330289086 18.722373294716004 17.105707014627153
Na 17.7093416700011 10.612258716326185 12.181057499631775
Na 20.245416232288456 15.879778653388986 13.657418267722024
Na 12.039706950317122 17.64844904707817 14.539965500509442
Na 11.671030555082424 13.79057233864429 13.273722801591909
Na 20.075499224627155 12.964106294002889 11.683168522061901
Na 16.2341253507008 14.070434419192361 11.841927135830616
Na 8.802477196254062 15.884613514589605 14.807201515177711
Na 15.306223845406496 18.979811540831477 15.960094546222233
Na 13.824535989852304 11.752739119328368 10.668960372384628
Na 16.96087821692721 17.280869099436167 13.057804226268209
Na 8.34470108765067 13.365241084555109 12.066603608111722
Na 12.09385397130158 20.978112568369095 15.247504791600905
Na 13.4735998146369 16.326399732616625 11.593538070232993
Na 10.317742424382129 10.819205600173996 10.513198219795553
Na 17.326695805409713 12.365233116217928 9.065050304532267
Na 8.856219214330377 19.31724458227872 13.839780042291013
Na 18.574038146148343 15.748967144939972 10.08124639135947
Na 9.691555941147552 16.645450060326567 11.426651883061796
Na 11.219883370567661 14.087861689853346 9.501938406356766
Na 14.69765583427954 14.770993671496772 8.55461444475433
Na 14.545930645379325 19.96599051435788 12.61528711748885
Na 11.346472414446055 19.779516926257536 11.463549303030895
Na 12.193703406534173 17.56803794197155 8.618487567868252
Na 15.784384494350007 18.05791760764546 9.658950497719816
Na 13.768239595909286 20.902000531638315 9.227779538495023
