51
Energy = -54.95940967 eV
Na 19.510809313162248 10.757735324376862 12.60931531241806
Na 22.894998311082816 10.672041099540433 13.66895135723974
Na 17.86443870741364 17.848020003615307 10.128948556418095
Na 18.02197097022776 13.882297422030753 10.37612150064603
Na 21.467585915958317 13.545436992599296 11.993190039291555
Na 15.374008861946441 12.080451511383401 8.245450510880303
Na 21.040419199037864 16.603596711700725 10.555111023265662
Na 15.17173718409375 15.677196224586359 8.708431740376787
Na 16.341619089538376 10.482585953213361 11.312384304496737
Na 20.36968612840667 9.323568107348104 15.802359246919142
Na 18.852444657664904 15.919435503873512 13.325693287018789
Na 14.43054456588828 19.177430049845967 10.671046029872842
Na 20.636216436106306 12.887511470637053 15.315796100117225
Na 12.841364356047835 10.258588619566396 10.405082958034084
Na 15.505054368433242 16.221323443233214 12.205193410867016
Na 21.934355870322786 16.29035724956121 14.498444099603063
Na 11.912290837573186 13.341823076446238 8.721059252038932
Na 14.297171530368018 13.271281702323368 11.350581721008318
Na 16.926038439618583 9.401634288201848 14.838489063129098
Na 20.32949004405587 19.186252309907466 12.814440739787813
Na 12.252955886160546 16.156877647775566 10.799567466401477
Na 13.877170587807498 11.067455131326485 14.021318989399283
Na 16.930850512085833 13.053594505913798 14.123370654790175
Na 16.788698570961817 19.399737680090908 13.363643134806807
Na 16.033123158950282 16.501104166579456 15.450212247522519
Na 10.870755554714899 12.685734284864733 12.323195823454379
Na 14.740256805492209 10.161880303531495 17.693822613182803
Na 12.696959593766982 14.766428418612232 14.46203856047431
Na 18.029399701661102 11.43497835094874 17.49155106176199
Na 14.724280649580454 13.64690225997016 17.126106330081587
Na 18.986743383445145 18.331925516003334 16.167492151136106
Na 15.55839183488022 19.940732951473606 16.673664651245286
Na 18.645076219901927 14.911742251189796 17.20811275323032
Na 11.467676587960652 11.543373273553623 16.379951743118294
Na 9.565858041459501 16.129257725083466 12.951116051323412
Na 12.844151182139578 18.317666330541822 13.858632399322287
Na 13.988320837404807 21.58520693805166 13.89284936234555
Na 13.213419973289515 17.2514383730613 17.297020230028192
Na 12.618651570550668 12.158663763043565 19.9909879405197
Na 8.786316500656316 13.82717356617974 15.5343566542717
Na 11.162212748494861 14.650774962862775 17.984383146791224
Na 16.308686375260677 13.293314220509306 20.061363797681853
Na 16.450041080309752 16.999872222689586 18.92021731644855
Na 9.794627749291905 17.501298089237583 16.11671876326812
Na 13.461015190762941 15.72892132225638 20.609415726731633
Na 13.753900456693799 19.381130991245154 19.962765087642826
Na 11.811297426726952 20.455159247951958 16.810236749347798
Na 8.960556884563324 12.111103584564171 18.903455980496716
Na 10.516741164978269 17.88015618393467 19.660105127975427
Na 10.112282244101182 14.62104190583166 21.32664195346818
Na 7.835725453074397 15.537492212688058 18.553626491306744
