54
Energy = -58.75718574 eV
Na 8.347361160513561 14.447948558014435 11.817994967074133
Na 10.368409232051576 11.724113718701735 12.96500901641488
Na 8.977415474863065 17.967342417775495 13.349381181850012
Na 10.883122136497477 17.051036269688804 10.346096162631794
Na 11.2246929131415 13.118018385696464 9.809710732062687
Na 9.236500401036688 14.965967387083596 15.324073178222164
Na 9.544522262590608 8.585787708548326 12.190561333243659
Na 8.450008894919044 12.097729915069106 16.99108877184447
Na 14.871819452157363 12.047026743804814 8.944811028020276
Na 12.47046641342204 9.619496825320104 10.393869319942189
Na 10.472692231843798 20.930522041143004 15.194971582569465
Na 11.727518857496648 15.029071208356658 12.920745454754481
Na 7.235034464238201 11.183083001306047 13.763763585392068
Na 11.187765810437284 20.453435887506963 11.640321142051542
Na 14.066795790581121 15.278878454778416 9.96429173957931
Na 14.38302985756879 18.602510690372508 11.185470759829544
Na 10.532876299584752 17.87099212969281 17.122059178432576
Na 11.875196371065725 12.35498108993641 15.99202138877683
Na 13.15017195268079 9.36087533395715 13.939226740772092
Na 13.812984211002307 12.373336604371808 12.300846444322262
Na 10.840253883242521 14.546181688356526 18.75996431676003
Na 12.363719735246995 18.237489474097075 14.041916072656925
Na 16.23780382417584 9.771100963132103 11.35101031419008
Na 18.44622046134407 12.40554595145467 9.468613211980935
Na 10.025052080124858 9.263521790877315 15.73238825222815
Na 11.196946231481306 10.943934546717278 19.1340551379617
Na 14.158546397849243 21.189798839967644 13.856005582543292
Na 13.135009786543996 15.672539563761172 16.284957515869017
Na 16.912103521072815 10.015645027334571 14.879212012413847
Na 15.161181089964026 15.851103497143113 13.306380003834288
Na 14.173123971272522 13.240004728082067 19.088923976544585
Na 17.453571713945564 19.754134831894778 13.031768960983296
Na 17.100507684849216 13.121911931345613 12.380399781817673
Na 15.273484274686307 12.902850650106018 15.488079843196829
Na 14.211697920158164 9.986387316635536 17.42022091145913
Na 17.52188418806856 16.13439667414835 10.545462921244036
Na 15.71479195932874 18.341743313661652 15.65195029047109
Na 13.425738594993495 20.136132614894652 17.421846934960186
Na 13.946618080033693 16.881843817229665 19.34223070055
Na 19.026085820299222 13.21553171716108 15.320801153745556
Na 18.512211729903818 16.475012196438577 14.001595471546729
Na 17.085113783427023 14.989893818439722 20.48328085689553
Na 19.766087764058824 10.655464309689997 12.693725784439563
Na 20.249527375187196 10.114850236346674 16.44391827178525
Na 16.80272992099577 15.440802017518864 17.194174306331323
Na 19.41485499853279 19.1364245836804 16.095605450922466
Na 17.454859370049657 11.87818387783535 18.26471378668358
Na 20.597936140705198 14.217375732378146 12.152732733359883
Na 16.783633883598934 21.545228591395905 16.387819312458074
Na 17.01349640934396 18.8048682295015 18.922563990289508
Na 20.97050310011942 13.20733172740295 18.160609659747607
Na 22.409995824189675 12.410616422613398 14.784960763304758
Na 21.658332174007175 15.837623999477893 15.474223223024024
Na 19.823779218502274 16.55108163504368 18.472553564114932
