5
Energy = -3.66715601 eV
Na 7.532516705907922 10.741649531545148 7.8451169540476995
Na 8.498254533245811 7.436710519054564 8.990945628292096
Na 10.804178197092796 9.816667087662065 9.502721025537749
Na 11.509048901633918 6.692109027317883 10.546731157697405
Na 8.950025159148923 12.606887331449705 10.408508731454559
