55
Energy = -60.22385584 eV
Na 5.8072112594657295 9.306502668038586 8.140907229902988
Na 17.344117618709436 13.05886341048555 10.491205879994862
Na 13.896219724941284 8.751758578262555 13.489485173693494
Na 9.43478159650675 5.5642163045466635 10.83544700716159
Na 14.876252369725284 12.516054665872357 13.457253148088146
Na 9.511913659499122 8.810157042099217 16.71564384046195
Na 11.751207680717433 11.46198033939199 7.851076695847982
Na 10.924506744585981 14.677175233364634 16.993706377209882
Na 15.32574040289786 6.898053784565874 10.639010954136024
Na 8.79303957073011 10.308530654591507 9.815535673773393
Na 8.560053860000837 10.523531457578848 6.118424549964567
Na 10.12484392836366 8.574929595390573 12.971130764003568
Na 5.502179675999377 12.961256310793502 14.369628206079756
Na 5.535807262074283 11.20022031330119 11.245761235211999
Na 6.7831849065894385 9.480475629925113 14.463717582535194
Na 11.681661318611605 16.678336160590703 8.568623783701854
Na 7.960212251499909 16.42460663701665 8.441553503537053
Na 16.26267946037659 13.20827192671221 7.288169091424756
Na 9.536308840351683 17.07134030517204 11.620493821275462
Na 12.503240194692204 5.52083038002956 12.214265860224517
Na 13.703170698525081 13.9782419882407 10.101793434960321
Na 11.816085840297921 6.468988339351001 15.468807596995964
Na 8.360070436716846 6.01900691464224 14.274598852462274
Na 11.458314164255146 14.508504109185555 13.255376717559159
Na 17.16905057532728 9.669874523156635 12.139554770821313
Na 15.011693167490666 10.44179296223032 9.442345278788908
Na 8.181390917815364 15.426410806657735 14.704130565171413
Na 11.570746942965544 11.349281502275067 15.194182660828401
Na 11.965235959460236 11.297539374418761 11.563390659097683
Na 13.32845728637781 9.121604479262981 17.270575523346952
Na 8.19737625540735 12.231623673987524 16.646623945737947
Na 8.666859192799182 12.148006978500192 13.007240677744113
Na 18.570698330639253 12.47102744000848 13.645902296643422
Na 16.433710236713086 15.67434624593407 12.634227797259136
Na 15.589130447577515 16.454181474480425 8.981789065929242
Na 14.043335931396156 12.756362481542949 17.397760414545427
Na 13.977305704115125 15.851739526509824 15.422335584332346
Na 13.256719382500183 17.295284448401993 11.826449666991305
Na 9.607390707877594 14.114191699750133 6.303909816207133
Na 12.005214394068203 8.252415298155395 9.753248639844807
Na 11.034324066944773 17.689429552164892 14.825436637942145
Na 11.592678397786075 8.357646213934293 5.939045792595742
Na 6.7214178077029985 7.7127034811299335 11.29216485468983
Na 16.415180985448682 10.390942786671836 15.784776706367486
Na 14.751998914614848 7.569059298843635 7.294213669161956
Na 13.166298370684963 14.369463654160255 6.3211708018730555
Na 10.974963944263537 11.460068235442446 18.751658722885175
Na 11.388030997168944 11.743510228368597 4.301013204577649
Na 9.896325367257631 13.869140995445221 9.916951844213573
Na 16.93865008288344 14.182352858892065 16.086217874230922
Na 14.452478380541825 10.707604924523348 5.665285235254897
Na 6.698672823163066 14.71268893651823 11.407431968214288
Na 8.82503530676603 7.265479012031045 7.820449840372246
Na 12.157048521933195 5.248864775043321 8.381400621668178
Na 6.682106549807645 12.915858798040956 8.169827298087522
