54
Energy = -58.12633717 eV
Na 22.743025074361157 15.487774881727024 16.229324470143087
Na 21.272803174262737 18.81829143933075 16.411391357114056
Na 18.926018854097435 21.469001153593396 16.586846056200905
Na 22.524880312063996 17.46599721138894 13.206841315615122
Na 19.53682823034728 16.14903374412662 18.327747207636182
Na 17.91478336425255 15.962199291408467 21.636855345432608
Na 17.50970060289563 19.283245348891807 19.824615618324152
Na 21.5422692995731 13.734603714903951 12.99890003315252
Na 20.205000001576856 12.959016168070388 16.30481553577206
Na 19.52250159588329 19.5058202135793 13.284917446444702
Na 19.656306650369302 16.11994676355671 14.710875525696306
Na 17.70064782338704 13.060630661749782 19.12865664743384
Na 17.30762375755817 18.396953813471036 16.418654974579013
Na 15.542621764924487 21.4733422241774 17.492633076911055
Na 14.80627772532046 17.604039210996756 21.994451225476634
Na 19.903708075116462 10.471088310990686 13.569769442267834
Na 16.39933650753898 20.89344091802645 13.977996338204036
Na 19.559839951006932 16.529056457068588 11.146006531331217
Na 15.834587170347083 16.248906913543625 18.921676389269656
Na 17.443413593005545 10.916046838911141 16.207326297583265
Na 13.678916654032024 18.899555544356524 18.843734699345926
Na 14.791295065549876 13.817085939793735 21.17768249386458
Na 17.769269573983088 13.365633768786191 12.808000070282331
Na 16.738573064335043 14.581881815359347 16.00543536770992
Na 16.573062799731037 19.117783797769615 10.522887803805236
Na 18.03646825960656 7.719634071699087 15.243724065955767
Na 13.556910588737177 22.775695243602165 14.877819561980587
Na 16.33114188730672 9.633435935495509 12.82533020396464
Na 12.206289270176553 22.293435175045627 18.418377634362518
Na 16.662860983995746 17.146847831186342 13.176978604253332
Na 11.870557092009479 19.888430682036248 15.828840378479338
Na 10.265013468713656 19.3411918041385 19.239031430597425
Na 11.848410980978777 15.913815409126581 20.212403041416557
Na 14.53495888438564 12.144245267149152 14.759400524403318
Na 13.990794226261134 17.010890605296794 15.643230468550579
Na 14.478456147934498 8.622882608011693 15.672435014449759
Na 16.29604241735926 15.397590306861233 9.90981147771271
Na 13.421985580418138 14.015482134478663 17.68203682982295
Na 13.593936573477981 19.433540647629762 12.726879757113613
Na 14.816222548260741 10.943963583891446 18.580727135386596
Na 14.074110875856421 15.045293303165217 12.702897196460151
Na 9.48343232665317 13.394611134744604 17.65331745857431
Na 11.747754764170312 12.156130624247215 20.116584612729064
Na 10.691264698434953 16.669989935155435 16.92097371212114
Na 11.630182337159411 10.702977543555471 16.636436914323497
Na 14.781530371157897 12.13175431781002 10.974354946577828
Na 11.028477550342524 17.016299748511155 13.184715959415534
Na 13.096400442072197 17.159225802870047 10.06842950722365
Na 11.448915915955943 13.898401903045167 14.792167182218112
Na 13.23405807771174 13.966497205075296 8.473512210240115
Na 12.238652119854985 10.20277018283054 13.011617911515346
Na 9.05665272394039 11.57042100500704 14.240750285360301
Na 11.172978078474967 13.476209130055132 11.37438057132732
Na 12.049042489793846 10.608757439764439 9.421094195670177
