5
Energy = -3.54603123 eV
Na 13.403489344224473 12.263612165768594 10.672923624947675
Na 8.162151565335755 9.262041526423333 10.662532769739007
Na 11.64455766574954 8.815622489760923 10.438265583283789
Na 9.722769088130864 12.197686450433233 9.538140252237433
Na 10.844697113549131 11.238702144603554 12.465802546781871
