51
Energy = -55.01616201 eV
Na 15.663164121460952 21.868213325347778 15.34982142467773
Na 14.470827335488035 18.96073002925894 11.033836124894423
Na 20.57225579599939 16.995453077548753 12.772254881508603
Na 17.416179190623005 16.685176779704356 10.820866690992574
Na 16.838941690480006 13.843358521725262 8.47922981659485
Na 15.499573371288053 17.274213457271568 7.731369734081874
Na 17.28858809991271 18.939577473552855 13.893469206742676
Na 19.49741458125321 13.665047450856628 11.283022366866025
Na 13.19406718228355 19.196642281214995 14.634814081144759
Na 20.993019820678366 13.86074077283271 14.855291482208811
Na 19.827883197482095 17.292023744097627 16.302060971536992
Na 16.215026483626158 22.732514993260455 19.153651203064886
Na 11.907732478884713 17.314451984007622 8.379367450991568
Na 16.114096062916857 17.139141589752345 16.762280715377738
Na 13.457368763693431 14.299495073973002 6.9469005455843655
Na 14.76804537804476 16.37319478797876 13.487168149510044
Na 17.344050509537727 10.692178873461573 10.362053028795811
Na 17.909549014891954 15.282903016499136 14.142198479141216
Na 15.99373489293242 13.339239161955057 12.002288749812443
Na 14.355952058341419 20.104221352791164 17.962045492883203
Na 18.397117098037395 14.082262834033827 17.309599036094873
Na 18.145867602843772 11.583207339653473 14.179699026203805
Na 14.044591668325067 15.388843555587973 10.176605365494185
Na 19.598159534533067 10.814709861734006 17.34735049329995
Na 17.989243249004804 20.071305624224507 17.656719844292702
Na 10.979199276793159 13.91743764370621 9.636078923340575
Na 14.597310407089356 10.185777625991495 12.66581745221719
Na 18.20378966466119 16.8829943177656 19.679592369678804
Na 16.25615505456053 19.572504115454393 20.966183284156518
Na 13.837861585716189 11.682054573105784 9.485021240995401
Na 11.428143735980155 16.98767722226145 12.067410410554565
Na 11.06202156189319 18.884060283804715 17.618395997831886
Na 12.89361260805319 15.82949807213111 16.47620446949652
Na 12.574625878868146 13.69095864199878 13.19394456326706
Na 15.413584645972241 14.59541695290199 19.124375327536324
Na 13.521402801466435 17.379420005582222 19.89770675402618
Na 15.986745998317982 9.151517375659253 15.840754744924702
Na 16.37163636581764 11.29065773762095 18.476901949944526
Na 15.22200096648515 13.176199617981972 15.650261693451998
Na 18.299717942731696 13.176599231626884 20.78422350504483
Na 10.98012290224206 10.957603260329895 12.078839988020656
Na 15.96712237034793 15.789847949705479 22.29542320527637
Na 9.04854201919632 14.186520480148088 12.667343965050588
Na 9.765988748602847 16.64754284952858 15.182859582643024
Na 10.332351528476588 15.508217930229385 18.79767713310202
Na 10.266910886622766 13.153100368990371 15.866731177321983
Na 12.59168885944107 14.525973633633743 21.676312294205054
Na 13.55997403326633 9.348437630707991 18.888762147908377
Na 12.674406058960217 12.673779121949458 18.500333076474696
Na 12.660243285873063 10.539128800189031 15.571725261154157
Na 14.940093633077215 11.85163421417702 21.601139430336197
