5
Energy = -3.72904009 eV
Na 12.683769374152382 10.76184182862419 12.286935659190721
Na 10.403109623633137 8.93759833829077 10.520026431706894
Na 10.638237944289033 12.415147471070648 10.12864849823477
Na 8.025080488046665 7.250368502635239 8.734238646636582
Na 8.228953194361361 10.612363080342082 8.308320790649127
