52
Energy = -56.13119157 eV
Na 22.36489385420156 18.230624871054115 15.753876570074473
Na 17.483480835796236 9.28103536476047 18.78622711720022
Na 20.117217158883435 18.694686786643707 18.598148715014368
Na 18.62803334847794 12.461342599935211 17.53190839734555
Na 18.096759938454273 15.872246016971832 19.719245054424213
Na 19.812990152935853 15.794333289206687 16.443925908701058
Na 17.77989400658678 9.575684267570313 15.169178733567072
Na 13.963346537828029 9.325852422652215 19.579048357127306
Na 15.851616049333044 12.744418650148884 19.799995801419765
Na 14.380070293913558 16.096984333818803 19.801636207672864
Na 20.825478544719502 21.498172706774223 16.457160664284974
Na 19.52981193958401 12.807853513047153 14.130939147795473
Na 16.466325155661263 19.09855267771618 20.654802378513835
Na 17.08815912921049 10.451302760851089 11.663212008836478
Na 20.796982975497677 16.142603489255148 12.927606881833647
Na 16.825276066363113 18.738075055532356 17.265322993972074
Na 19.182007863700782 19.05539619159486 14.44505516575977
Na 15.07257364579895 11.080931874268941 16.906840642624086
Na 14.998821939528217 7.52278672843756 16.567111488205217
Na 18.512124840738036 21.735047915179845 19.10253100667004
Na 16.288537759512703 15.053410403542825 16.909585928812792
Na 12.146303222841388 12.46562234270496 19.572188207463878
Na 17.34527727133205 15.963682772807303 13.784625935328307
Na 17.99568956379322 17.6197697124214 10.92835535291198
Na 13.605001976899176 10.001556877398619 10.208671784951411
Na 14.247861906111497 9.523734059841162 13.704175008090393
Na 17.20799769869259 21.931608463458257 15.765927171390064
Na 16.05906742694826 12.701512440209768 14.227832802183224
Na 11.853719151883805 9.885272385165983 16.537051017673654
Na 18.153451647923614 13.931367668693245 10.999592224278476
Na 16.05766694933756 15.242348712161332 8.51658312057898
Na 13.096997031406227 13.947367764996212 16.848561567686417
Na 13.876270999032496 15.54712616716149 13.94212834044909
Na 14.488194510591601 13.24227768919216 11.28585056001607
Na 14.413050342628923 16.992464666428415 10.984301136132883
Na 10.854528202798399 16.085109874234757 18.647544334223323
Na 13.486445674236046 17.6144358810484 16.648061072095516
Na 15.624936322978703 19.002225611152546 13.849922310480622
Na 12.847802962982747 19.38115211631411 19.660488677576858
Na 12.097825484335834 12.3506962004026 13.874982134436335
Na 10.577454259716406 11.690139554099085 10.787823417327086
Na 15.057062466655243 22.03238264190563 18.82457373826007
Na 16.077929625929823 11.68742941414942 8.42075454099678
Na 13.533853595494245 21.12117457319786 15.8526477814765
Na 8.623161870370938 13.284792670426 13.345383828050977
Na 9.713978084090014 12.935841874586506 16.809724903828496
Na 12.75300128491722 13.333469825651258 8.420232544354777
Na 11.222912243059303 15.18410997378607 11.524865329758477
Na 10.312181711620783 15.979008139751198 15.048321560908844
Na 12.029933320359262 18.60375391886177 13.43604946652571
Na 10.416366963327857 19.321778655087943 16.833174331449765
Na 11.548553489164851 22.494686139937624 18.42007189953918
