55
Energy = -59.85926922 eV
Na 9.12045962934875 8.208302319795509 5.8384902589249466
Na 14.556337412975331 6.04542001738205 9.27729912619587
Na 11.397884606693852 6.525411922558952 11.415478009622326
Na 9.865283879731614 11.002727336948992 7.921879000271305
Na 7.984479828779545 13.944508738516724 7.341787371594564
Na 11.134076356476294 13.656765971971941 5.490181995832287
Na 8.458930877317572 11.538279007535774 4.6951192795282255
Na 6.150724489551079 11.63357454916872 13.715840156074458
Na 11.965809771026187 8.915133697057092 14.32400715587081
Na 11.387114031539415 14.13198874160404 9.275046733840059
Na 14.632798583833026 11.214893578272802 13.261401978188081
Na 12.971826207936038 5.737467040487529 15.064476541995033
Na 6.456358714807493 10.421363970880664 7.514634962476288
Na 9.002640825533813 8.751291519576899 16.570927280295322
Na 6.098691512492812 8.090916466672118 14.600746776292443
Na 18.146914888066238 11.776934122118263 10.068628716257976
Na 15.080832149054057 16.34912976652138 12.104915581358277
Na 16.62485003441614 11.995437040933128 6.910639853799404
Na 8.754727030591447 12.644896189653009 11.247560550638243
Na 6.0914313705056 14.989108481725966 12.920464886060074
Na 8.686976738905335 7.926656608870709 9.27327115863027
Na 12.539494690511193 17.269333712954015 14.459603981484545
Na 12.031578911342192 10.098168127550316 4.756159861857505
Na 17.648515655701317 9.658851345381214 12.9790345698726
Na 14.774251925787949 13.22640670447321 10.22576554992579
Na 17.222675657912873 15.218030752062154 9.094835605749218
Na 10.69770737750796 16.831106442998962 7.371931721963244
Na 12.292311453480295 13.954737524210062 12.85828113958835
Na 9.85576914254716 11.93657763743432 14.704458096366933
Na 16.917151245293148 11.74282900730778 15.96548466586987
Na 14.736634602278505 7.434400225986956 12.489340264371215
Na 5.741833055877399 9.392532143669209 10.94540979328337
Na 9.889174302342925 11.685996560876873 18.27699426135956
Na 7.601704294508538 14.134330525498994 16.266099279986683
Na 8.85309396341733 9.097719233746089 12.637219908650136
Na 15.126776864797428 8.62853778257746 6.365492847426306
Na 5.555648090599027 12.991384678690336 9.973528388090635
Na 13.308578952718987 11.422972732333834 7.549416156035399
Na 17.325238297388626 13.63682839306614 12.876137812232232
Na 7.271532827473288 6.072797090419064 11.815743538122392
Na 15.269103345216473 8.584498803394514 15.8063001655852
Na 9.473195924370174 6.037213883018487 14.580610780572606
Na 12.208506741633952 8.351088958812243 17.78710750676671
Na 14.054979872802079 17.07946484271442 8.896351510314092
Na 11.410924937420376 17.238124121983738 11.103115399132804
Na 8.163229327488398 16.03071935338792 10.135172773186438
Na 13.229517026696781 11.585851870368165 16.697440491197874
Na 9.366873517841604 15.695071940858721 13.597369556440237
Na 14.305746502396834 14.67169293513142 6.540760971038722
Na 11.300294819710402 14.665883991592107 16.596057881999542
Na 12.046419376162985 8.051935163464782 8.007801864880644
Na 15.430802937093564 9.497406272274443 9.789040540813561
Na 11.908150999807743 10.45176389996166 10.944367402024394
Na 14.814954738362418 14.604771625649402 15.356528260370732
Na 6.466013130511631 10.928298076482255 17.125773528278156
