52
Energy = -56.71464987 eV
Na 12.259877310561363 11.437991479367806 8.111885572063489
Na 14.93513025296865 14.461878006773626 7.395041853146355
Na 17.28269415670748 16.50498786428819 10.064438737377507
Na 15.665950846962604 10.549417767144632 8.422169747945567
Na 11.297288233453488 14.883403679944946 8.896268665378651
Na 18.265132060883364 13.165724375469354 9.43068374404978
Na 13.722523904543356 17.32730079388549 9.8417389090218
Na 12.898874477456651 7.83226121935408 8.715221626030914
Na 10.165469768974587 17.837807864126773 10.913952498480155
Na 8.78372611123142 12.142744566508714 8.864291457283151
Na 14.62381575865694 13.577903476551114 10.489785571788941
Na 15.24333357612286 16.422419998695325 12.969377295061332
Na 15.695577130213236 7.2663067772024155 10.889585393354547
Na 20.47231433380382 15.470624699211234 11.654492041967728
Na 8.494953408617532 14.765340454123223 11.529537008276872
Na 16.08480873940371 19.50983689113218 11.70822998404542
Na 17.622800596358815 13.957630963528468 12.711982661955476
Na 12.044044187909918 15.276905397653568 12.719686961710593
Na 20.436926202351238 12.046547577947704 12.728443617037046
Na 12.669234165963887 18.974587276278314 13.158238725085738
Na 12.335156422229153 7.074220050350667 12.557205384027576
Na 10.037357979513994 9.084974565557172 10.589962618442147
Na 7.364556652395494 11.28768791354438 12.21593023296158
Na 13.705378985461575 10.00810560008609 11.190742780909455
Na 11.137276074638843 12.283446860690992 11.371181766746977
Na 17.20237454258253 10.513972091427 11.807076723480057
Na 9.556421417444982 12.835108074004888 14.394630517771184
Na 6.507445873305024 14.309979319341275 14.501525145039594
Na 15.222141078874518 8.728309282104382 14.312411194645822
Na 12.019489314048688 10.325266004790414 14.298371220601341
Na 6.9572957150628065 11.063651574941032 15.909480592191032
Na 9.1172767440407 8.655640710483569 14.236973651034203
Na 15.571547747708816 19.55474178976183 15.409794304227075
Na 13.519298945519088 16.824940107413227 15.934153063724446
Na 17.81318165128867 11.33717670852702 15.316682572361792
Na 14.484928216229951 12.476723331023965 13.70268883509493
Na 9.819578825759454 16.607150678216172 14.988884298676835
Na 12.201737573471153 7.613981343934398 16.30409887412452
Na 18.41575145930067 17.531115903548535 13.842094309665454
Na 19.760129565492154 14.555004955433066 15.436838255071162
Na 16.08590595870447 14.419272646157369 15.879030445901169
Na 12.225541044545505 13.696777903504143 16.321470603971434
Na 8.756882857195995 13.871954572578638 17.59844861161124
Na 11.877077866866415 19.715911931333576 16.59182893864648
Na 10.322773993347178 10.554699992672681 17.33506662743186
Na 14.42573062398853 18.581934038016122 18.810472055685384
Na 17.904252754545634 13.356516121341992 18.515637165895203
Na 11.344855690913754 16.471949591547848 18.605663147911223
Na 14.4283073325826 11.140449200760932 17.30926472587459
Na 17.436014184497036 17.03447035692687 17.464928924448504
Na 14.64558233776098 14.902235297113338 19.012066002757884
Na 11.793462624171806 12.830197630311755 19.67953161464153
