50
Energy = -53.66974379 eV
Na 20.375272911790937 19.268719494769606 12.149100545541291
Na 13.436664877373552 20.480403809571214 12.406770281040197
Na 16.933983138196147 19.849023677088482 12.347288869960982
Na 14.921281057047686 20.14626592074124 15.574999188823094
Na 14.533052428796564 17.97430040955629 9.99066030380569
Na 18.52760299035224 19.740141807439848 15.679201593532953
Na 18.038197832072953 17.057207068879514 10.317909508046457
Na 11.124693236806285 20.28550814235928 15.142034214679576
Na 21.67080869233034 17.861796216425954 15.04921204819016
Na 11.31741341486595 17.737879432658822 12.395640229765505
Na 21.16524922898072 15.749792789851822 11.88960139624064
Na 14.837147341155875 17.17332684178409 13.313545106118607
Na 15.681795370928103 14.80339072075282 8.648768634693601
Na 19.053867843096903 13.727318548152379 9.37781887567748
Na 19.316688801126983 16.724684489218085 17.68369200941368
Na 12.502428227413292 17.198126677480946 15.946862240860563
Na 12.71495491490351 19.91878657633422 18.355848616227643
Na 15.897461345768518 16.636531461301473 16.70154714493517
Na 21.164777889078923 14.372297763335093 15.562645435193042
Na 18.458246265807375 16.675270333611152 13.958641068632987
Na 13.046464592318722 14.739829792009628 11.207395352748598
Na 19.481753782551532 12.64048230637614 12.815782855289273
Na 16.41014526864391 19.225243158726595 18.832494858438533
Na 16.703894799711264 11.812298357317449 7.222104047250168
Na 16.44164509151526 14.193333738711749 12.126312767889251
Na 16.92673372278016 15.795050894101607 20.309690627885587
Na 13.505300867491322 11.869982682954435 9.139064212543934
Na 17.71617283680941 13.74332607132744 15.814450690708536
Na 8.946686918624373 17.326522060436023 15.22025828096194
Na 16.68805696949364 11.110850415754971 10.669230430845962
Na 14.256105462769032 13.932282776989467 14.928078927688933
Na 13.541254840702663 16.72834024217872 19.597310600402086
Na 19.240477206705958 13.233546481333875 18.94827166393168
Na 10.119258028326577 17.239407649138517 18.599820205702922
Na 10.863178234963398 14.607025899287075 14.075634360061988
Na 19.890274728719046 11.025034942458715 16.056061074958016
Na 16.594013277546793 10.847698012314234 14.34569291460327
Na 15.465681162545781 13.358015122697157 18.437587915430225
Na 12.11582930020106 13.978253051589903 17.78837201233215
Na 10.403143592222866 12.267127262928577 11.403299091321742
Na 8.709275369519757 14.082853793492381 17.254869953608075
Na 13.68176984444805 13.810761656348586 21.513634768756603
Na 13.45150332907945 11.331268700825131 12.73637707279911
Na 16.96310767513815 10.32563458305984 18.03451286213453
Na 10.14896079028607 14.426484889998545 20.733335454631526
Na 10.540675396134345 11.463176098948564 15.20244365772311
Na 13.838794218790882 10.571803942801932 20.05845451184436
Na 13.700217743325245 10.70959039828739 16.542066187621284
Na 10.414235684336843 11.186300047594749 18.87698645805954
Na 11.170089499403044 11.454550997232063 22.361095827838316
