50
Energy = -54.42990864 eV
Na 17.228273568078713 12.025989374927391 6.687946250691101
Na 9.33467961480737 12.051238853450442 7.72247592319022
Na 13.628824900343398 11.670218916141309 7.831631662322853
Na 16.254592991220758 8.912674533844754 8.130280420310504
Na 19.590324911766324 10.347368971230283 9.035665221330435
Na 15.655294624288935 14.949581187754688 8.180490001253528
Na 19.088664356967268 14.270891440523757 9.22486850702402
Na 11.090496069265752 9.004190970708754 8.741392874649273
Na 11.93474884649804 15.008654561809196 8.609142508031725
Na 14.140976961957431 18.207458409177654 8.143976813052722
Na 16.760355759666947 11.844888648468958 10.022988537701705
Na 10.957479857607105 11.904244824762516 10.546097647196717
Na 17.304648529193628 17.697799582408997 10.027194644815944
Na 17.53264736878957 8.890265629822077 11.77212554008991
Na 8.058603432759547 10.340096499797106 10.86442437743766
Na 13.997219819131463 13.270507512119492 11.000474179142126
Na 8.532202891949918 14.61610281451257 10.23974763954467
Na 10.992121483319668 18.052852962340776 10.63955867998405
Na 13.994397253229744 9.667117737116769 10.901214100981882
Na 19.345361387259906 11.976579918650309 12.430665953578075
Na 14.223913880605242 16.63439406437902 11.138490510110566
Na 17.22375381536992 14.862407208528326 12.21013081058384
Na 11.031565138756367 8.511228061247722 12.381930156380236
Na 14.310210519729056 19.915070657598854 11.519304932246817
Na 11.229431060284908 14.998055392925455 12.211603951806447
Na 8.656408294038163 16.770875963912754 13.843317419238405
Na 9.860802710966546 11.952693806016708 16.7706491382427
Na 15.787614233365503 11.651821062355765 13.574514822515697
Na 16.06263518922281 17.73188601786746 14.154829723125571
Na 8.455084173504531 9.50533057716645 14.609201309151482
Na 12.013762247260699 11.609856796566072 13.7128406604976
Na 14.228218573413388 14.82020937689242 14.098080012907209
Na 12.396175648192111 18.007905586980232 14.093501330213405
Na 8.392948741959698 13.0377510700947 13.651951848740385
Na 14.725506418396623 8.489040374402684 14.212055950134749
Na 11.017133200147441 14.967759279990295 15.59213040744048
Na 11.833531356890518 9.059429265490001 16.281951487261054
Na 6.467351383195674 11.533774360268819 16.773362315011177
Na 17.01189837338686 13.837501236231887 16.006006559340857
Na 8.712620979672707 9.101450794212028 18.354992035343162
Na 13.372877640320354 12.624072444548858 16.61220850275291
Na 10.153051733764219 17.666728164848003 17.389253368501286
Na 18.261367407531857 10.053026799828954 15.284488333499302
Na 14.023055588628296 16.348588304424172 17.169918515195743
Na 7.830711167149209 14.92597739913684 17.073293923531253
Na 15.450908891135526 10.202549792372825 17.460263091275273
Na 8.478821512865998 12.316347208056667 19.84773714851324
Na 11.922583183805637 10.884660880281764 19.460923806463978
Na 14.919709849174314 13.365201270942455 19.38158618034086
Na 11.215463299377484 14.596714273076048 19.068151107516663
