55
Energy = -59.58292488 eV
Na 15.249923169299068 14.46448501357123 13.906571602666958
Na 9.242190827898042 8.896479414252047 13.583194776574361
Na 13.170003537982781 8.402916891690468 16.058463873786202
Na 8.477455424266916 14.301135735376937 15.84077692305857
Na 13.543675263973848 12.672650529473234 11.024989722127776
Na 14.056231843155542 12.234845505896795 16.56569462853437
Na 14.66113408423486 18.13608692976306 14.219070504751308
Na 14.842034791815612 16.713866987549004 10.899138567466457
Na 17.37833915559069 18.025689132085816 16.48224688314208
Na 15.924556762664615 11.043219965415199 13.76111373801197
Na 14.566855648432833 9.272999137148512 10.49208672495872
Na 11.137462281904172 14.611628997101034 17.934515835517153
Na 7.030379794005773 11.228431407138727 15.133711829025044
Na 16.95747769503567 13.755123213366744 10.956175204459665
Na 8.453506058916771 12.244621137752315 18.83997269462113
Na 15.685793596477259 7.474327011265732 13.302223360495246
Na 17.896600352126615 10.201759713103057 11.008895577681836
Na 17.89817950272292 11.03706078562444 17.040290821739113
Na 11.931071254506564 14.35400154999265 14.444115068234883
Na 7.5490520495296325 14.50476286013363 10.435561205823346
Na 16.700115072519115 7.6494327940853415 16.666620650081864
Na 11.351648016069555 17.56326989855162 15.817432403674093
Na 7.53990533258104 10.702635418235287 10.523801060999675
Na 14.318110629877275 15.992689427993954 17.120094903713035
Na 12.547783559064852 10.658967962435696 13.551830913394495
Na 10.324324464177714 12.728345088731228 9.091544536244735
Na 17.588191764997454 14.518282072256982 16.61400662535301
Na 18.928380165065313 12.762911483611095 13.760443018811351
Na 16.016148504261512 11.923886241258742 8.099121574118316
Na 7.402381852289767 12.76668618207076 7.270378374199837
Na 17.93529637715222 16.479198379666794 13.261931288847807
Na 12.258862868923666 18.006416916701397 8.45650774859585
Na 9.502746206815774 15.759945934319003 7.455194133990612
Na 18.806312078687387 9.073707946489248 14.215769008846829
Na 8.949505953550368 18.060996915642598 9.992938531453518
Na 9.399239759003695 9.62130030227355 7.464407785568172
Na 11.389234340571356 15.489465258330396 10.889152218760163
Na 12.15600966133506 7.161675471789033 8.623872165606436
Na 12.314474778155796 16.205602151737008 5.183022073885801
Na 11.822053137617166 18.62168152502194 12.198057002477672
Na 8.98364057572857 7.1192347115781125 10.382458027483391
Na 10.709798735143226 12.916050864740228 5.614032594734878
Na 11.075650591280587 9.810194693941028 10.598115839483635
Na 13.416582256689836 14.58087344020636 8.030379738456713
Na 14.309899810123746 13.195859483716218 5.01094882002286
Na 12.204592755495987 7.101459392341634 12.486511934528222
Na 12.852010213716385 10.655997419615458 7.427998339394947
Na 15.723870871350215 13.27834535007717 19.48416900200832
Na 9.526038069549932 12.565755819558836 12.778363129311373
Na 10.538987935896051 11.187256068159236 16.31259620835094
Na 16.537507813250166 16.870826069239218 19.722586207676954
Na 9.041490482210483 16.443339324030454 13.232383244112212
Na 13.267214757172228 15.606876852028718 20.5051580858021
Na 15.003929118536453 9.77211727047123 18.830361188191283
Na 12.14232780606528 11.808813360858842 19.635191488606118
