52
Energy = -56.09449174 eV
Na 10.822959772338752 14.968400770546614 20.10149535613474
Na 8.371361351636931 13.801253347140879 14.645897346286025
Na 10.27482583349026 16.39772850873994 13.177811158331465
Na 8.294506302988443 13.31206339771615 18.258637930015695
Na 9.020741426919578 12.512324088551575 11.25898822722165
Na 9.44007131134133 16.546342635935478 16.91931218611159
Na 12.364905619095286 17.774728397064646 18.658441779565273
Na 11.575789597974056 19.43036952039969 15.549623678928493
Na 11.202549293271161 14.978204879506475 9.78266353722283
Na 11.985842679684488 19.38113179419964 11.96386303855411
Na 14.002058990673701 21.89463572732948 14.14198062383724
Na 14.04423058095563 14.518573104234813 18.841659344098833
Na 9.555302203790662 10.664627826359375 15.984554081533062
Na 11.350280444161687 13.53676676630151 16.6740547972865
Na 11.870855520516535 13.086938731834152 13.134431402853927
Na 11.754362936573171 11.427996023918285 19.225919305829997
Na 12.31464835297075 11.474513074107165 9.834021444917278
Na 13.082643431225698 16.15486395399179 15.452768594052035
Na 15.983320354040403 17.245299690163577 17.403621800774598
Na 14.590231077053877 20.386620664387376 17.821698061890235
Na 13.679856169244037 16.289466476322204 11.91421417116994
Na 14.718754191328719 12.970314286767616 15.224289077412193
Na 15.174093756819984 17.498797335236986 20.8189952485187
Na 14.928900869475438 18.789820761462874 14.28886653316581
Na 10.91116908188381 9.760771018246926 12.713961045149823
Na 13.02894484050494 10.02271902201291 15.990190036422613
Na 15.448322086770123 11.33815689511224 18.570505502617117
Na 17.42573845865576 14.100732697379605 17.006171297954147
Na 14.473830942521179 14.169583367977062 8.407001175164424
Na 16.63086458943276 15.868020223231246 13.878433937092941
Na 17.09343837661321 14.075484026502998 20.592596561506443
Na 13.457911603678177 17.64955593934566 8.82167738217848
Na 14.508133872283318 10.013007393357999 12.61590947591924
Na 15.306096540781843 19.861272222312977 11.008147192560592
Na 15.34328807497153 13.20540556854666 11.607570905447803
Na 16.804963393206595 9.97806162360347 15.520219201942053
Na 18.12852643714492 19.252736671412293 19.181686238365444
Na 18.162544790937776 12.786516052657442 13.744816181667026
Na 15.768405799430157 10.833413946320363 9.132110550067654
Na 18.526065591330205 17.08397253722387 21.89568278177371
Na 17.49218291917649 20.54380763814813 15.833329765517068
Na 16.850211487404348 16.507485267228756 10.225163361030402
Na 19.23102576734117 11.734433957526766 18.37169901791635
Na 19.911726073254652 15.61995448586073 19.014993082471495
Na 19.29244952369441 17.318111440488124 15.874107513057858
Na 18.453792165495162 13.219382201139508 9.973712807922071
Na 20.268624748643358 10.377530262465912 15.10384003021323
Na 18.30518103630644 18.883233162027068 12.706202759750552
Na 18.12468294951865 9.989612657531602 11.914958726702515
Na 19.96034579671809 15.673595809197858 12.322315685085373
Na 20.864082911319773 13.965656256723134 15.717764209034943
Na 21.240015623128148 12.355898609593716 12.205761503322238
