52
Energy = -56.20012659 eV
Na 19.45993513942941 21.22129959605129 15.20587612660005
Na 14.230547942352683 21.110919577427897 12.300206889857806
Na 16.614412120237763 22.835114030972107 14.35457067006755
Na 17.75944782331031 19.73820970642917 11.989577742018461
Na 19.479504142607993 18.76027550542887 17.848399178062095
Na 20.124564228088325 17.90553201005294 14.465272992292762
Na 16.842185908302273 21.294450754017358 17.750781405645597
Na 19.452005380309366 16.104091920905756 20.458009205150468
Na 16.07651800879661 19.260089596257576 14.95660917741921
Na 20.227511876324034 17.144427957448865 10.917212134304602
Na 20.389073333652146 14.180128959238772 13.314123224263396
Na 19.83683712411908 15.162717600851877 16.81923425916397
Na 16.904740536136988 18.47738261368498 20.265700090054917
Na 14.527586806838137 17.65373560528058 11.502526675718165
Na 13.613606832370282 21.794926500279868 15.911594810301812
Na 17.09020449183765 16.301375714780498 9.342365254550195
Na 16.54505376750505 16.610283017096034 17.04657608810492
Na 17.491906979340328 16.32543144242012 13.11015194143677
Na 16.456161709645468 15.305431353557207 22.364377131661108
Na 13.911034385330193 19.149205580290424 18.291954120521048
Na 19.7131162683657 11.463643195139168 15.910068657920295
Na 14.03957871198456 18.28063037939377 22.277532476395113
Na 17.465304816267953 13.573748691557073 19.07513106532154
Na 17.158521919372713 13.419804049959533 15.098656921176325
Na 19.603303144290596 13.91856742365803 9.788795269048071
Na 14.274226574330564 13.659577945590764 17.265315128740486
Na 15.754348946248388 13.716343778692718 11.647140358287807
Na 18.35573834749737 11.551638132044921 12.027776542567906
Na 16.58760521883203 12.416927504546122 8.65101906742614
Na 17.079885400556854 9.386036184808772 14.323182674924896
Na 12.55132869872889 18.748021585447507 14.357626587269014
Na 12.693991159442868 14.974766645172062 22.650077405941996
Na 14.33768901900343 15.937656139785663 19.756185399578207
Na 14.163071317337693 15.48996301538625 14.2953564611044
Na 11.204550908287075 17.512694899488466 20.287835538342176
Na 13.597981793955586 15.023393989173933 9.143801259858698
Na 16.091104343941044 10.623031467117398 17.544226162929718
Na 14.300122342258918 11.605201941731286 14.431194221885017
Na 11.321676642081457 13.860418364086435 19.296428431380544
Na 11.957013130056469 16.52577819868666 16.945340405986993
Na 14.425124266327225 12.350701843811986 20.528971616517588
Na 13.166382739762252 11.52174962544852 8.395516499678982
Na 14.63837008776501 9.927058010311974 11.377001962993267
Na 13.862828634551317 8.175302785298978 15.015338395908161
Na 12.404372077808445 12.710145838593883 11.756317880487266
Na 11.202994714753178 15.893550028209107 12.218055245472385
Na 11.133800270496927 13.4670618193514 15.267512627015856
Na 12.4455669355181 10.62510291158686 17.45111581839019
Na 10.253471946482966 13.497665226611936 9.18175460300685
Na 11.125351622271223 10.061316823839514 13.88883558329901
Na 10.751742050862925 9.943711238432211 10.35330609394823
Na 9.003549995097714 12.724513334362918 12.4188058549162
