51
Energy = -55.48972428 eV
Na 12.189525162240443 11.99062514470454 6.477317152660671
Na 12.659323266047805 15.370203286115013 7.892057693070562
Na 15.550964148231873 13.06848094327041 7.6877910226637844
Na 9.536981528671726 13.444723630854861 8.678912943644642
Na 14.430672219334195 9.657984808910383 8.129718791045171
Na 10.36654757375316 9.89945071398803 8.899019804742077
Na 15.940671993944289 16.400297056952965 9.192012942836095
Na 18.813500290248417 14.129026376789568 9.158264751457464
Na 9.97316819159715 16.820484533309195 10.125059939989818
Na 12.759055797831614 12.378224759968731 9.904320233336355
Na 7.016693763677944 14.882918589380447 11.01868646062477
Na 17.626370582863174 10.653544524485888 9.548882392124687
Na 7.854021325736791 11.251560878992164 11.20884717672704
Na 16.34150636643807 7.306285870256942 10.133740861885313
Na 12.674022900651964 7.52366193951921 10.32565715408484
Na 13.162830523681432 15.795042678665183 11.371966733431329
Na 16.064917186398045 13.45211278525404 11.204471911509177
Na 10.134532889419797 13.845565301271522 12.180976680086196
Na 14.828380843790129 9.961419788200256 11.832581283508729
Na 11.00247862153738 10.15098856857228 12.409607922616413
Na 18.286866036038806 16.211237586255958 12.135091727815938
Na 11.612867184324939 18.765228050630316 12.806264607218942
Na 8.651752644669749 16.808272595219005 13.700786383463
Na 19.363203836450083 12.63953159613882 12.415146828940758
Na 15.543546322261106 15.43943775612007 14.3376443374816
Na 13.291909756982232 12.81505037374253 13.374343798132577
Na 13.372303492128824 21.11603429620066 14.755912584780232
Na 18.172613791820716 9.158661623662438 12.869738750149885
Na 17.669548186901704 18.042785269097628 15.314701598154553
Na 10.516573973219582 12.38522669961283 15.542319524629647
Na 19.641891211538592 10.959400715596379 15.708188732322393
Na 18.76613670734162 14.524260638466089 15.535850489431596
Na 11.895199429630608 15.774502005481173 14.941532188378803
Na 15.300524368198191 18.627775506672855 12.617021323599593
Na 13.323511841999574 9.891705644589926 15.404218850705341
Na 16.489682312079914 11.895111100035889 14.57856454637959
Na 8.209279550951184 9.906595218770857 14.690633338227064
Na 7.275308405627481 13.452435991351408 14.355975801697296
Na 10.6773089120308 18.790414481874038 16.373030836008784
Na 10.525507465796233 9.591302457028783 17.786504857698265
Na 14.210723956706223 18.25761368526991 16.29987996923062
Na 13.860328817629181 13.337184904205262 16.884563563881983
Na 16.659223034166498 9.09633619785442 16.70605290313432
Na 16.224058353753204 15.84687565973625 17.90821353472155
Na 17.099964716028413 12.304600279775547 18.113595427386347
Na 7.774246476181978 11.975675318169476 17.65323260632793
Na 9.117063854606963 15.364768000230006 17.112888524606735
Na 13.922522239449238 10.36385286220142 18.938427382512565
Na 12.353930010039658 16.265232447755352 18.605225522251608
Na 14.442756987148293 13.78723643991271 20.307775186416993
Na 11.066096759200773 12.86566822987792 19.089396233265173
