5
Energy = -3.72972783 eV
Na 9.585128601096525 12.826873815949405 9.952817833016493
Na 11.92542182015529 10.311614811719254 10.629247379754553
Na 12.577817656782207 12.738650109466262 8.32329552908335
Na 8.76829980770621 10.269705278958565 12.2294543756362
Na 11.050804272089353 7.8443015523177 12.853335214313457
