55
Energy = -59.91040155 eV
Na 9.416217556988004 8.835849469969158 6.0930083649908795
Na 14.632407906396177 8.181224060838481 10.727521665536129
Na 11.273240244383997 7.18423999868228 11.599721217278743
Na 10.423350585120886 11.285857430121292 8.8625846397939
Na 9.13260997064528 14.759444065009037 8.056202350261714
Na 12.314454775609812 14.040783981203798 6.583816011418934
Na 9.402261890706491 12.295639606168361 5.503162358336597
Na 6.727153127310428 12.14031291236046 14.253530984537097
Na 13.704689829259284 12.192296406794895 15.0973879002734
Na 12.063004236436017 14.316375760849425 10.332133472322333
Na 15.411764675987712 13.57640848038825 11.592010325490168
Na 13.482366712646474 8.438138387085788 14.275200021838783
Na 7.04344752398212 11.12989020555292 8.03515023330482
Na 9.298560363836382 8.633820864864157 18.250211927585273
Na 6.986530923989171 8.803464812591653 15.247852170853461
Na 18.813405620282122 12.573772681049954 12.21101345030564
Na 15.409063470903307 18.561610486870865 14.193669888749545
Na 15.589435739597604 12.456687980259193 5.705248924459367
Na 10.186370928778219 13.706211423370268 13.451831150180814
Na 6.901241699527135 15.510168481900134 13.381055166487691
Na 8.507850422077478 8.000624781531258 9.339222184080219
Na 12.718170093600769 18.1254240246702 16.27797336531167
Na 12.605667863349579 10.506103216269734 5.643220266205784
Na 16.06047943059521 10.553739981242565 12.994312490296487
Na 17.582520313349914 12.244480979885953 8.717690126809844
Na 18.217384172608938 15.513160874150685 10.107899198763986
Na 12.070373871988739 17.207750053190974 8.56302517872453
Na 13.273444591047046 15.63843058597046 13.692857986917556
Na 10.233114436394878 10.947105444344166 15.688873711660394
Na 17.214964546379953 12.817594948981638 15.62224826453573
Na 16.82690554498332 7.2855788269147554 13.488567976166664
Na 5.902737195704961 9.834419368094464 11.446307458077184
Na 10.731344076842511 12.012506610917518 19.032760967406517
Na 8.371566786568547 14.423170671170958 16.622657516934712
Na 9.167293481547345 9.981847899855467 12.387626268105244
Na 15.794596917525336 9.047538905821584 7.298181928558004
Na 7.803177205529629 13.077488392611027 10.874027148445096
Na 14.098293210068054 11.472787621958794 8.900124997075462
Na 17.39535008481598 15.727142398102345 13.597923191305677
Na 7.7565459842097875 6.654143029035269 12.50675485526714
Na 16.097971119513677 9.532905443867488 16.45953747654042
Na 10.290401248562702 7.332389439410963 15.122711434616347
Na 12.753857096897317 9.285689636117421 17.61642521149178
Na 15.048919904255314 17.225764266417343 10.872247742266627
Na 12.100346258706178 18.624062314499135 12.292394454767331
Na 9.419515888353585 16.5703806691938 11.080204288723822
Na 14.581348144541332 12.460030147220259 18.432498929455
Na 9.847884961805889 17.04319554111444 14.669113134358602
Na 15.25386200154778 15.14169946996213 8.081723914874958
Na 11.849659056329696 14.712530641089582 16.972867988266838
Na 12.187109852690448 8.057237195498463 8.17904248884053
Na 17.945880264030535 9.20854001460305 10.442061225631747
Na 12.466592962838758 11.00016264467823 11.992008460846753
Na 15.385864252303959 15.693586426651526 16.68841106451391
Na 7.193581391303211 11.384742454281014 17.810337295408175
