5
Energy = -3.72952946 eV
Na 10.60586693714284 12.554322751321722 10.723814850866697
Na 12.3213184882734 10.087681299747707 8.871960741932341
Na 7.6771459516551825 11.758732682068057 12.251291890776777
Na 10.885164558056278 7.023911993733865 8.485442975829178
Na 9.260665923844027 9.325513132100367 10.417651399566607
