5
Energy = -3.26949404 eV
Na 10.559233038689031 10.006798619413262 16.3469276547733
Na 12.933130265982703 13.883311856250973 8.45702465702249
Na 10.777302275337167 13.31461346234146 11.004085720559504
Na 13.440137297308741 11.154270702049306 10.42388994218121
Na 11.61562488551897 10.955894757352704 13.159976716034059
