50
Energy = -53.43045747 eV
Na 21.109902691634275 11.589593338295101 11.59400829559982
Na 20.051437925733175 15.012216640172042 10.902826949809356
Na 17.59819226036751 10.448681493911893 10.116894862769037
Na 21.38321256613511 14.422597403769958 13.921223712331926
Na 19.07757205617518 8.739295489761107 13.015133216988096
Na 17.392853797205944 17.427833846275888 10.530738913471168
Na 13.751452457571403 11.96619258743513 10.222001696477317
Na 16.75540186397365 13.855639019829061 10.30639001242183
Na 19.607557759946644 18.037508595243594 13.608011983572187
Na 18.16350593115909 12.143763262180535 13.136240455829084
Na 20.48156340553778 11.179656728719447 15.40795135614002
Na 15.448470077133132 9.911693129615111 13.017268930449418
Na 14.324131785706632 19.678996188394805 10.539222532430923
Na 11.065443418574501 14.382794010166034 11.793063499087861
Na 17.735746496642335 20.733302763157305 11.776272993947464
Na 17.359575922332567 9.165982007237396 16.17599028861172
Na 10.072948646052721 11.54794118490548 10.010354097428257
Na 14.041581239994185 16.08157782537677 10.817841841942354
Na 19.272291581095317 14.614360124141333 16.678331549534033
Na 17.591261882552118 15.345600079596327 13.624396392160698
Na 11.828546712333996 10.751291093003296 12.991205917844205
Na 11.469301551964898 21.905146600534913 11.115832539022772
Na 14.840590983236586 -0.41236070449361817 12.1736553213739
Na 14.541997841926916 13.432155648241753 13.360024585154923
Na 17.587430420068564 17.91619247706617 16.909496296339384
Na 19.022742973827445 11.370734640823365 18.664585555356147
Na 11.017667692360735 18.252964278099753 11.487258606152231
Na 15.73111858481468 18.208695662954355 13.523189614251047
Na 16.972620273910312 14.252962472635668 19.39283671637509
Na 12.594982599655522 16.66014470572457 14.083980482741268
Na 16.563400416056762 21.12394848502154 15.108743642174025
Na 16.56430216536378 12.450582938428994 16.208133430963315
Na 12.998945228118227 20.49065136965436 13.811366418628133
Na 13.638647932005716 10.433314569193872 16.147003091397455
Na 8.569240521761909 12.271290928337578 13.33911223189824
Na 9.893845452009913 10.539468434072859 16.314551988711578
Na 15.169696377803684 15.616776122072425 16.21967441487894
Na 15.534707894686909 10.754526436062 19.26835468029304
Na 10.108715059603165 18.995004090290028 15.051652370654596
Na 11.624310658018048 13.408947233806783 15.353316766650112
Na 14.626714135791024 16.768707539496255 19.6195361366912
Na 14.066051849981985 18.98229825852979 16.75811183072765
Na 14.131343706510718 13.433538575829036 21.495785422636864
Na 8.910538498180122 15.548843903956973 15.092474297454288
Na 13.472098365807387 13.472620314232772 18.21952742223757
Na 11.762754075568933 10.702617900032221 19.40973815936399
Na 6.996576506047229 12.746868031983173 16.545511738207214
Na 8.026014499170685 10.613130645310775 19.27244275691323
Na 11.561978843430392 16.488363153146427 17.472053717310594
Na 9.745638548020993 13.618504941617847 18.491866934827897
