6
Energy = -4.68250723 eV
Na 12.631567186672983 9.20567144254723 12.10955802149798
Na 9.526004235729285 10.84447815930074 11.813222143613194
Na 9.959754261304196 13.409138488832935 9.42615584644795
Na 12.822759204581624 12.627880751820337 11.30353832994154
Na 11.484254191443748 10.421211691506722 8.911692563726522
Na 11.766800621482544 11.499956815479372 14.456149892582005
