6
Energy = -4.88635601 eV
Na 8.14464660710895 9.327612732553966 12.375905197056625
Na 9.895488572240515 7.2953109868988415 9.99269520430439
Na 9.52885673081284 10.610447463975088 9.588010597758897
Na 12.397694534743879 9.328270890752307 8.405437077585704
Na 12.207708171780993 12.614272615486835 9.836601597644432
Na 9.59292014947096 12.607440499232023 12.298707343328084
