6
Energy = -4.68061036 eV
Na 6.096896316650417 9.267531692542338 7.291199574685317
Na 9.469552527740522 10.516928027913636 7.673811765312515
Na 8.867533184491725 7.146845600728918 6.788761666653171
Na 6.020231451065363 6.137010401596309 8.601072405348898
Na 7.976412624476081 8.57517184567743 10.212404468269312
Na 11.291502895575896 8.078641755873647 9.154878795398387
