6
Energy = -4.68147042 eV
Na 9.627293153239783 8.050740965748007 8.053464701282905
Na 11.519461991468994 8.067070220178772 10.858261255270229
Na 11.36559801049525 10.999270504516957 8.832493321295791
Na 8.459261034747392 9.803558155185478 10.898176128600038
Na 11.343944640518595 11.350485229719995 12.325417658767439
Na 9.172756870071591 13.21719062519251 10.520502635325691
