6
Energy = -4.58287945 eV
Na 10.339562297128554 9.472992642802708 8.084684606837573
Na 12.644774467683579 10.607138575940668 10.48381851891101
Na 10.2733204911809 12.66891986940134 9.502772236480075
Na 10.10525771470323 8.022535860498012 11.276420593417894
Na 7.70190313773542 10.048869415674828 10.310231814801547
Na 9.988373909565812 11.230682127519854 12.685704141926097
