6
Energy = -4.68231626 eV
Na 11.653519227735341 11.981639791025179 9.497449606716993
Na 9.459828836896152 9.599092146748943 8.163640953383595
Na 11.050524064202948 12.115285407295538 12.964084915117418
Na 8.32214768651699 11.605710196129424 10.642767259805135
Na 13.677740280950871 10.30935856976912 11.84377645431255
Na 10.46426975403233 8.958197205666604 11.477678816761193
