7
Energy = -5.20423033 eV
Na 10.959537805883153 12.598312422206453 8.714101957491765
Na 9.213432328553566 12.631459587708703 11.623662203230264
Na 12.458558616837319 14.081763022450252 11.354542659432962
Na 13.751347309068416 11.082751769675914 10.126721990474767
Na 11.969794078688329 11.015906844603862 12.983462228665323
Na 10.42777158902737 9.600535123983727 10.37269195495346
Na 12.864164106138249 10.3671862754714 16.128145651232835
