7
Energy = -6.03699588 eV
Na 11.75984423032446 11.659627836899773 8.047055245604424
Na 8.90270939329224 12.887491179417156 9.647257645289633
Na 11.609667000912284 11.673169404461374 11.575457358355592
Na 8.284384474920905 10.89389149115902 12.462812989878959
Na 12.90950758344599 8.881820359976821 9.853348790481478
Na 9.433813922883692 9.406763133876364 9.461742064550954
Na 10.744802257146834 8.398333322275462 12.578270581495453
