7
Energy = -6.03667016 eV
Na 10.958055216414593 12.296342675238941 11.847679057050197
Na 12.020015716894246 9.090620220087818 12.884937449054265
Na 8.227865045144496 11.82515382050327 9.66534607233084
Na 10.641948637481544 9.249771839891592 9.63462718683603
Na 11.415802622644259 12.442604975691893 8.344558979685477
Na 8.598633969673978 9.733396076381988 12.468402267106775
Na 13.759132814546982 10.75999142928035 10.341795691073953
