7
Energy = -5.65655076 eV
Na 11.796616591646906 12.280313383396413 7.743512835437746
Na 11.454361642197771 13.373025430964974 11.09674295062717
Na 8.605466006641402 11.399253925470319 8.991146221975269
Na 11.5797739670681 9.96151286692184 10.198092662145648
Na 11.215617827255445 11.118745766332399 13.509426572901209
Na 8.375761592346649 9.095304043892806 11.365747284341664
Na 11.338880505323182 7.683578187604889 12.686497093641835
