7
Energy = -3.58367367 eV
Na 9.325543678806723 12.024248162451574 10.975561447001246
Na 9.58348093031958 10.317563346245961 13.909784679986107
Na 12.052185028546564 12.89383060964279 12.638754670829886
Na 10.215233779944269 12.633267443211304 7.884536574034104
Na 9.298934133322117 9.025856733333901 9.717785652426608
Na 11.998921776524874 9.61544726573452 11.638487361847636
Na 12.586290773806647 8.550376540650602 8.29567971514532
