8
Energy = -3.22210363 eV
Na 9.370258955956059 13.917967393190168 9.372732526354817
Na 12.356899946350856 11.63379798421149 8.59089666492204
Na 11.877585439412371 8.703466048549895 10.632625602608822
Na 9.206865337249036 10.146870414826074 8.643204815169153
Na 10.465965376870441 11.590806331858118 11.389779767254257
Na 8.453754050963568 9.018070605971243 11.990391664352165
Na 13.75110412602832 11.64830064992221 11.923089661113515
Na 11.263370475158256 10.086524279459464 14.203083006214019
