8
Energy = -7.24579226 eV
Na 12.92208063364687 8.446669390565868 10.562313781506145
Na 11.12324257994516 9.569381211186304 13.564194675690638
Na 12.632203903940901 11.860653862904186 11.385730112544604
Na 9.417153591664068 8.46918308635272 10.69170241261136
Na 11.410970448028607 10.377169953733016 8.29209077968788
Na 9.062488376887837 11.796489074874577 12.130351155946478
Na 10.48909318308088 13.562385372520922 9.442452800184935
Na 7.984292181770907 10.901855894621194 8.909408218513466
