8
Energy = -7.12820518 eV
Na 9.880425080458208 9.286659201997113 6.652530037362739
Na 6.391857450138704 8.887596729264475 8.124777900813081
Na 6.652211599105224 9.786345441406981 5.004881849830153
Na 9.345113425269735 9.779259854579442 9.973940057876888
Na 6.43177084604711 5.297371582532831 8.372160846170111
Na 6.92921134054182 7.479771440849402 11.070258159050876
Na 9.791834920734024 6.489192000826516 8.643029316027826
Na 8.096210091836317 6.505768269838414 5.668509403567524
