8
Energy = -7.0994661 eV
Na 8.001250516152052 12.844288196624994 11.618249386448294
Na 13.589089887898414 11.784666688668977 9.949522716458228
Na 9.042057927551129 9.466547351409933 11.262256340700858
Na 12.184825229980579 8.68510478551487 12.153209964592795
Na 11.130734024281374 12.096754709795052 12.528263093372754
Na 10.445496694699282 12.575009305196186 9.044428085939614
Na 11.488518018720672 9.242044448861959 8.76820543825908
Na 14.245436269158912 11.287556945674984 13.411730348187302
