8
Energy = -7.15451837 eV
Na 9.05197686958051 8.619277099579973 5.948016833735302
Na 11.260966224371499 8.370950157555157 8.598283890611446
Na 7.176400323281143 8.520151395128606 8.901975524992269
Na 9.294782845862459 11.252338948013042 8.147603328840797
Na 7.0145489511698385 11.37535319222651 10.797981192869607
Na 11.915388214560997 11.210357991625987 10.364391056145129
Na 9.186865668279488 5.958953185351558 10.058739229086479
Na 9.4603917150404 9.0539388426651 11.544329755864911
