8
Energy = -7.12668637 eV
Na 12.775891615645339 11.313533053797435 13.45212445596347
Na 13.179482647563312 10.103013578558997 10.045669584771343
Na 11.095550485950733 8.351426155333142 12.158413449209293
Na 10.229228831752483 8.753840480139921 8.868172920646616
Na 11.276578948719585 12.060783670664105 8.021625001735478
Na 10.278520272622737 12.085982640551887 11.487033700249304
Na 7.921108256631854 9.356696075863725 11.534411922374066
Na 7.958460485057654 11.899611710784814 9.136732291562698
