8
Energy = -7.24480325 eV
Na 9.350764334094412 13.116620993379172 12.415698958020837
Na 10.630386563516007 12.840967881628627 9.337144646735156
Na 9.907704962294687 9.692818973153473 13.577812633615562
Na 11.366791453506167 8.423585477227178 10.843928955320514
Na 12.517600725786547 11.596129400159857 12.192686030955812
Na 8.27362244670376 10.337456339803397 10.535236880428444
Na 10.120216898755217 9.69878022790243 7.814167180712115
Na 13.411303116590354 10.69112844728928 9.093691183376754
