8
Energy = -7.24634727 eV
Na 13.573850582585077 13.230669541326584 11.48271954109295
Na 13.17244750329167 10.214740882538447 10.077240449785736
Na 12.02258592960253 10.788915215328963 13.479834020754966
Na 10.972392628442389 8.075687103121847 11.806060233829063
Na 9.990424680412827 9.684412410240506 8.664343337390834
Na 10.731647304587211 12.853268466368032 9.449254527097802
Na 8.803966050362922 10.839504468537356 11.779881015473977
Na 10.183719752632237 13.715730271962144 12.813687280663068
