8
Energy = -6.71931415 eV
Na 9.420592545809575 6.164421330904329 6.426284948095099
Na 8.111220595441557 9.527461619003233 6.47287288278106
Na 4.70269655134232 9.628659396841655 6.785022307254576
Na 9.715043560455312 8.121253501554591 9.411674604493186
Na 6.776857976935024 10.024854582703217 9.670138522659293
Na 6.642206452480017 6.697826125694501 8.503293852147147
Na 10.142612371982777 4.6770929751697015 9.48402353686462
Na 6.266590490200539 6.936251012775618 5.024509890351739
