8
Energy = -7.24493428 eV
Na 12.327102428653113 11.336276825025083 7.832711044220983
Na 10.228974576753924 9.077159623151168 12.183881759774364
Na 8.181984290040681 11.908331849150207 11.805259189227003
Na 13.335736110915784 10.659929738317285 11.133431042592761
Na 10.998014196042554 13.286316330548798 10.210686352730566
Na 11.750744053654417 8.06561187513717 9.368257347807875
Na 9.140508685353252 10.397364830904642 8.970145171416691
Na 11.446359756146848 12.11075549844828 13.498536494477062
