8
Energy = -6.57196479 eV
Na 12.162385095670297 8.259298512058558 11.767823308390238
Na 9.058649828519258 9.347956184823998 11.013379999171384
Na 13.631282873711603 9.791651583157785 14.312410686209496
Na 11.985238031249175 10.136939159001685 8.964003225793864
Na 11.607523810951978 11.857013369871172 12.355732411801865
Na 8.847367395584707 11.149548606717314 8.155989265024187
Na 11.264679838449348 13.367867032872537 9.41503161401184
Na 8.528832042224607 12.647112580443636 11.316512711915307
