8
Energy = -6.7196597 eV
Na 12.657968255033467 9.29150239801293 9.130018416680516
Na 14.40889298683445 12.255976236591103 10.084880061101407
Na 7.9729171188546175 9.32919696435623 13.390729876939252
Na 12.062363861713768 13.874090584828163 12.276853320670886
Na 9.294118823616428 9.37704513250897 10.161826344687809
Na 11.79065644568302 10.396706198213685 12.36204894654854
Na 8.889376045371806 12.387733275406097 12.070352837749237
Na 11.099671013407043 12.410066148618714 9.229263369416083
