9
Energy = -7.93678639 eV
Na 6.40465300420842 8.51169216545924 8.180065404451286
Na 10.595604619880644 10.249819298114396 11.498957290891965
Na 7.841630231506939 8.160739533235517 11.17823697192238
Na 8.06766709824969 10.920976913754242 6.304121769220868
Na 9.418527366917843 7.689565222455741 6.60226126550955
Na 10.969357439612041 10.611103290099173 8.084110951650429
Na 10.901052887250126 7.309276924178386 9.615268773660409
Na 7.907595510237407 11.529557419961893 9.678230212871316
Na 8.01671299947977 5.140069362112909 8.981549202478686
