9
Energy = -7.96377069 eV
Na 13.930485137127446 8.73461373070968 11.399932450122563
Na 12.605960585759664 11.090117164216242 9.273095009779354
Na 12.177747225667272 11.381629045296739 12.834057635240107
Na 10.52290317514008 8.467642200821269 8.685897718097673
Na 11.022857023426537 13.909820762832155 10.56244244435917
Na 7.076747020369295 9.5892369751036 10.04519841207701
Na 10.177563797584066 8.719673866981488 12.027417055738646
Na 9.215390325693031 11.730155622683942 8.489540486838212
Na 8.694313746826017 11.800556791386462 12.105852363291811
