9
Energy = -7.99032139 eV
Na 11.328888004673212 10.359515577274218 13.110606323484586
Na 12.724438583088439 13.43947991349972 11.853290104672947
Na 14.003656599453821 10.470243239079702 10.81884492517649
Na 9.648704966712666 13.259672493945704 13.595710567719918
Na 9.708087200447208 14.64949250786163 10.29301768286327
Na 13.106085181098042 7.331754336556534 12.333311925774215
Na 8.699722524204617 11.259215161645068 10.830551660110586
Na 10.844074324042191 8.790722578826653 9.962017686645492
Na 11.545063402038382 12.04706772248547 8.813420988728337
