9
Energy = -7.93555817 eV
Na 8.363370211183623 10.402039198494002 6.153341327874803
Na 11.095996732032612 11.661064049045068 8.522392595170912
Na 11.006323855522874 8.327013954285695 7.628270746454391
Na 7.62564286591637 7.840840519238815 8.449872052784533
Na 12.756673163636764 9.225019424838568 10.503664333658113
Na 7.675477958340433 11.309896048768623 9.428519942678921
Na 6.799191374242057 8.759517327926385 11.743309450558396
Na 10.01918892811855 7.199522044314703 10.962509019314439
Na 9.975054656814425 10.592007178895981 11.925040277313197
