9
Energy = -7.92610478 eV
Na 11.671035828495823 8.180551180240766 9.437342487214789
Na 14.828289224448836 9.936759002326653 9.710241598895099
Na 13.77825882485662 12.969914224698044 11.368852953597568
Na 11.441220166628383 11.656495235762668 9.101295183364913
Na 12.195825324566176 10.02809244448929 12.359481919496185
Na 10.337588667888879 13.024040918088113 12.13708514162905
Na 8.973769274663312 9.918671552967286 10.904307508458617
Na 8.150200108336156 12.968700094594837 9.416390353715158
Na 9.327666979631381 10.488085825786698 14.333701372693373
