9
Energy = -7.88937064 eV
Na 9.954391 12.314321217329026 10.051760228210881
Na 7.637298604974693 9.954391 8.63067562186251
Na 12.271483395025308 9.954391 8.63067562186251
Na 9.954391 11.79273027491882 6.699252786712327
Na 9.954391 9.954391 14.89756981123951
Na 11.83571922432991 9.954391 11.964285832133013
Na 9.954391 7.594460782670974 10.051760228210881
Na 8.073062775670094 9.954391 11.964285832133013
Na 9.954391 8.116051725081178 6.699252786712327
