9
Energy = -5.88936508 eV
Na 10.511683523563885 10.493716628892962 10.464179847121265
Na 7.468686025387209 10.576503748016695 11.875085984773285
Na 10.906189954043146 9.385757992041567 13.247409176684572
Na 8.234160614011483 11.315516383944658 8.463506507548226
Na 12.096305094033914 11.676020774070304 8.090816052833821
Na 10.131285113442587 13.354916680980114 11.333739746263948
Na 8.931774787382452 7.8883079643370335 9.901543442074667
Na 12.799174317541471 8.416115710882492 9.84940917716586
Na 13.560843210163204 11.533246756403397 11.414412705103446
