9
Energy = -7.95907845 eV
Na 11.741937841353444 8.200697424110164 6.939719115755566
Na 8.105773032888857 8.844794173895158 6.9300587182259
Na 10.332194217403831 11.751716593722273 6.949732005652509
Na 7.432121669966141 11.575048287026947 8.973223932481176
Na 6.972326288919169 8.331429339286393 10.1771391513579
Na 10.582896602415982 9.775269377276741 9.773124374302892
Na 9.46408046326098 6.292732510586152 8.866992220204718
Na 8.523658410758188 10.915355173985262 12.27386365867446
Na 9.919221263118011 7.387166910195246 12.19035661342948
