9
Energy = -7.99164758 eV
Na 10.394937625324152 12.37819517555034 8.736147431728673
Na 13.221571273894355 10.489190310727261 9.710896045739878
Na 9.879749150046782 9.31331361677464 10.08552978759977
Na 12.59270693332714 7.683273829593723 11.74071586824446
Na 9.754376664357403 15.425347529818694 10.528491641449616
Na 9.894494268180322 9.147239835737127 13.60810030624804
Na 9.706168288528525 12.23274939938292 12.2061438386396
Na 12.797205511476806 13.652583460652819 11.229859429737713
Na 12.915760359788722 10.923370479169911 13.22529425018627
