9
Energy = -7.96083096 eV
Na 14.161699647173231 10.851264446649639 12.4704297654646
Na 10.86100804117054 9.60318544872634 12.350845209881815
Na 12.559247902977628 10.572880170016601 9.445281022921902
Na 15.320619688707707 13.63757641262078 10.86601508385584
Na 9.697312268122623 12.946965073909569 13.217519953643345
Na 8.695459482095014 11.272312137652728 10.349908292102283
Na 11.590471892974644 13.627401832250593 10.458087295723255
Na 12.046497737219111 11.197138281716878 15.200002231889938
Na 13.072162627188723 14.156858985699266 13.471335995577178
