51
Energy = -111.00815780 eV
Ag 12.044008848750074 11.54792601873926 19.646095478795104
Ag 10.828200054481783 13.310810137686524 17.88657971020639
Ag 9.580175363179235 15.275427216002793 16.32487736371605
Ag 13.704737312611382 13.232374963695253 18.129133849648934
Ag 8.42646824462837 17.428394392868086 14.959720164411394
Ag 12.488805570605706 14.930718271427812 16.182808748997196
Ag 11.20717366847945 17.172845095949302 15.017573631554011
Ag 15.292662553395603 14.932439297206368 16.577143273813576
Ag 11.048607816935439 10.48795322567477 17.223943129098924
Ag 13.874477711009032 10.460780588805223 17.881901986412643
Ag 14.005248290628426 17.113723042418933 15.315035297506478
Ag 9.591240625425602 12.554072291716125 15.505056024854616
Ag 8.337705809547552 14.762930209535545 13.804257686034093
Ag 12.530682791411413 12.103867812972075 15.553078219921147
Ag 15.391221325923048 12.206836554569685 16.11363218803306
Ag 9.789909004537584 16.956982027897098 12.618141820370433
Ag 11.074501442386858 14.310816934669278 13.762581329421366
Ag 17.672116818858008 13.779958173961639 15.449371614666159
Ag 15.814092647155476 9.313926817765477 16.233855955724305
Ag 13.851566578889345 13.790668359526599 13.776337966057412
Ag 10.506534665837753 10.097699966287268 14.483318478112153
Ag 12.87086722005682 16.429358395636218 12.813807639172577
Ag 13.036559422607146 9.218577837662165 15.545652606988817
Ag 9.275226300100156 12.229840714750681 12.76899773655924
Ag 16.15902095096479 15.785811145417371 14.079620626640542
Ag 12.074963061838448 11.669563208972429 12.743695762372967
Ag 14.0057183758511 17.327850549643294 10.250701528584997
Ag 17.894953304786068 15.17610523077163 11.876145726851327
Ag 12.466945516183449 14.12163242969095 11.196592354188544
Ag 17.392151949326053 10.958565918225245 14.547273664523248
Ag 11.261926115030144 16.713111819383723 10.333844167339517
Ag 9.579763136213215 14.556038338368142 11.1805761413945
Ag 15.189929783950548 8.056516807489848 13.882991357770424
Ag 16.498548182925138 13.116257650744764 13.05184461321115
Ag 14.67531872479348 10.78693789447108 13.753147394106707
Ag 10.166937480950288 9.716376935614818 11.72543191174251
Ag 12.564391934084888 8.747819085960693 12.821120021464436
Ag 15.134399052211023 15.176332964753295 11.5848936850573
Ag 14.426789757843885 12.125007459259932 11.293606750612076
Ag 14.377364648955783 14.88399712024304 8.961246634394756
Ag 11.14720378417197 14.398773160808338 8.681362167187077
Ag 12.56515923993079 16.697006110831182 7.864130234737859
Ag 12.583000827783831 10.052902638792563 10.293622535318322
Ag 16.97964565717078 10.764637553178396 11.651222551033007
Ag 10.603241033551937 12.095498746604767 10.218639009020993
Ag 14.932170387578726 8.986219870070832 11.296958358770892
Ag 16.642447338917265 13.297076665819597 10.036137721894972
Ag 15.56107422219618 12.848748115318378 7.424217339468073
Ag 15.588550670361364 10.711316184715576 9.164096359115797
Ag 13.105366160781642 12.319703684258055 8.765208539342334
Ag 13.07004909988893 14.148253978641845 6.633643080021632
