45
Energy = -97.41653832 eV
Ag 14.400082433818616 8.715419014438405 11.298691710491267
Ag 15.885252795744858 11.053305371780532 11.847209365012777
Ag 15.165614713974218 13.441068911702928 10.30626730158743
Ag 17.45732882695624 13.355840296606939 12.060154320645392
Ag 14.246272875854551 10.871894683199377 9.565442816303916
Ag 12.344781958067385 8.802326696193647 9.30311260307009
Ag 14.097585901272163 7.036641095641189 13.45321338509484
Ag 15.926125762038836 12.360534811753505 14.336883857587912
Ag 14.13276768490543 10.016298873545868 13.795951701801327
Ag 12.27241619435431 6.848972223802932 11.262438552501298
Ag 16.87132378528178 15.65831208630144 10.551206598324098
Ag 14.400956592153564 15.959057869905125 9.065416756343874
Ag 13.595979348535911 12.631873410373943 12.613744013834857
Ag 12.008309713311245 10.65109098840671 11.456884843295956
Ag 12.429137167821189 12.934824198845767 9.580551375794522
Ag 15.346645932781112 14.945629483675122 12.839009374060591
Ag 10.506757244799482 10.877812575770504 9.042021317211937
Ag 14.88505147719005 10.355731267783787 16.442217867982585
Ag 15.95444806141379 12.83040195567252 17.073874679551427
Ag 13.164043009850536 8.221395613828882 15.79285084369919
Ag 11.639390336953701 8.425903924469784 13.405797502892383
Ag 10.036931159455232 8.72929734620587 11.034753472396305
Ag 13.475629348462316 12.697266225404622 15.732548443538708
Ag 14.902529239238023 17.41392586864603 11.36515221222584
Ag 11.629729000931412 15.475954927407994 8.688075257545313
Ag 12.037677967597734 10.566651593083618 16.7886188915336
Ag 9.688563632578372 13.539822794499479 9.502856492397642
Ag 10.328689473455071 8.4521123529743 15.855722988071648
Ag 9.145893125919633 9.759807061488416 13.56676712717453
Ag 12.903522223649228 15.15777971114184 11.283094485929707
Ag 11.466043304317315 11.28353034808577 14.121791538891003
Ag 8.93488801427989 11.405889758210735 11.2942813486646
Ag 15.097507139140564 14.981781790409276 15.558586220946927
Ag 10.869002869792908 13.350209466569924 12.14317110368331
Ag 14.22524493475565 17.25827888278956 14.107355208022872
Ag 12.318466364014174 17.767450373555548 10.214039540315694
Ag 12.601968338470098 14.897008409360513 14.141325334992258
Ag 13.330605459053508 19.367361692299006 12.387085773649524
Ag 10.099195131492673 15.987168460445798 10.99152686168633
Ag 9.31283633403122 11.027588233484483 16.136808817474954
Ag 8.731058366578832 12.594373769678759 13.923313794365189
Ag 8.07655135627479 14.156663120274155 11.7562286876056
Ag 11.633534442510292 17.25450233187762 12.917470804505948
Ag 10.770468313558933 13.452299968811378 15.724530156679727
Ag 9.763371580715386 15.327516125164243 13.810343840530356
