8
Energy = -12.68121701 eV
Ag 11.613003458604876 10.394502112495367 9.06682901955491
Ag 11.847746431161495 9.47977951448699 11.65767767327469
Ag 6.946787988218286 10.389667609881268 11.331197482126782
Ag 9.344351172868405 9.582014894348935 10.511878188639853
Ag 7.239300617939065 9.73068323232338 8.73807266265345
Ag 9.698241631485912 8.96034142885496 7.692080265208248
Ag 11.107119968805849 7.623918602908897 9.712485570050063
Ag 7.460929051336963 8.979821703745662 6.165621475265443
