49
Energy = -106.71827972 eV
Ag 18.439327943928447 14.437735428452351 13.232106969669985
Ag 16.745221060605747 13.349566064016853 15.34410100312435
Ag 16.553198455181636 12.500858127246586 12.659746255213852
Ag 16.691681368335438 14.7716159363536 10.957141302025256
Ag 15.958056646591466 15.555095241400926 13.599816627274192
Ag 15.308717490124437 10.86035028873836 14.600230874636065
Ag 15.629026336096063 9.912727012228135 11.843517640112118
Ag 14.378797646160397 12.380951994162057 16.786316216604103
Ag 14.840255919409477 15.27571264229666 16.2734058336298
Ag 14.545600137616958 8.254685534482983 14.05769192323937
Ag 15.029197333546962 12.472973459360439 10.363416159377106
Ag 14.218694851440592 13.452132138949183 14.11071552522426
Ag 13.243520316831543 9.63266563121844 16.229538209664547
Ag 13.92618927281443 14.92617556961807 11.615415167999368
Ag 14.770332524546633 14.854014665424847 8.883295795461395
Ag 12.244863686881361 14.212829253730822 16.43841744647995
Ag 13.174085616866568 16.125670226320512 14.076577179092936
Ag 13.784365873907497 10.110155474968083 9.603780807590459
Ag 13.312915703135417 11.262487950082818 12.426309074299311
Ag 11.708660069541523 11.638403930748222 17.629710508220548
Ag 12.542812669456257 16.943697034331976 16.628015049345834
Ag 13.422670661974768 8.10036751547312 11.548461368091749
Ag 12.16243989555584 11.780070969258096 14.915749079186662
Ag 13.497925790604961 12.439576137929054 8.010114257600856
Ag 11.659670096493935 13.80428724844705 13.01136803489321
Ag 12.719197875375519 14.81255085422306 6.864411955204466
Ag 11.866706250125745 9.076715542579175 13.734141818206172
Ag 12.03325716600816 7.817379442292047 9.075637406526665
Ag 11.813072317156111 12.291885559527692 5.831259619256167
Ag 11.23697246789234 9.798939888888423 10.860029398523459
Ag 10.492581394981256 15.806467731577703 14.949407293743649
Ag 10.207761830129531 11.461692201408914 12.763524920429067
Ag 12.033908572400895 15.248634400531506 9.56244913041726
Ag 10.090963874806329 10.203267942960068 15.814490157030878
Ag 11.049818009419203 16.265668521721963 12.11117835278469
Ag 11.390424164765129 10.466853540397121 8.010595066187113
Ag 9.746692981331648 13.034671034274332 15.746973742263494
Ag 11.97813939459146 12.486757786190779 10.372586207037173
Ag 10.596934617779858 7.297883483739362 11.71024319378279
Ag 10.518465652605746 13.381896501651374 8.015710594186185
Ag 8.840813300671254 14.18210943975897 13.40537597987652
Ag 9.335889685071622 8.56551825840238 9.274240937875971
Ag 9.116615854081804 8.774700698187512 13.675536763849301
Ag 8.023312229474376 9.806686216967883 11.453152619622541
Ag 9.724947158388682 14.153073485767909 10.7421952864743
Ag 7.873779504630986 11.342489274615447 14.114510229672108
Ag 9.239741914170807 11.415368301932354 9.574459680939785
Ag 7.527055350776722 12.54818323365926 11.553237797998863
Ag 7.74321021639413 13.576695237887359 8.887823344051549
