43
Energy = -93.47098834 eV
Ag 8.97017213491944 8.888378186670701 15.837838122111595
Ag 11.257131820140065 10.326781298983363 14.99511164400274
Ag 11.504074872622459 7.589247492458435 15.522787029719618
Ag 8.646918511067534 11.407049888898076 14.544226879925386
Ag 9.992853651852426 8.375750937045273 13.26792297865772
Ag 7.307707661523908 9.1750990369685 13.54672059805298
Ag 13.571361495790654 11.923111752797183 14.853063425420318
Ag 10.94772023109019 13.058699045471009 14.541217181194854
Ag 12.713488961967883 7.449992772381693 12.961483538729052
Ag 13.828483315274822 9.055863576746242 15.027276906673912
Ag 15.863255422496191 13.508222903721682 14.805514295410406
Ag 10.229631199580517 11.219175465132185 12.217256760950054
Ag 13.287087922284627 14.722502454529495 14.680307159812633
Ag 8.76086028532577 13.736306966289847 12.909384910185379
Ag 16.108070201063207 10.688543111495026 14.87467243623441
Ag 13.916729651260306 7.875335588569258 10.418054051447323
Ag 7.3395567946748965 11.474922644902497 11.918969230768885
Ag 12.84237127831686 10.201333164883573 12.487680683952954
Ag 8.473589389695935 9.055284254467349 10.994303706787832
Ag 11.208381961815412 8.513171966366956 10.774591997936636
Ag 15.368481905164371 9.034597671582414 12.659721823863084
Ag 8.925946347806583 11.418005852324997 9.503752220305847
Ag 12.661498589966136 13.04286232620479 12.260395373280517
Ag 15.397041130735737 11.951923462440778 12.494759902133968
Ag 11.116008366890462 15.437583383405801 12.972005576538034
Ag 9.732301292352737 8.99234831748266 8.46205799534262
Ag 14.840016612889169 10.443771852789311 10.222657065636332
Ag 10.44148193085795 13.705426691021724 10.628053465795972
Ag 13.446501158225058 17.013423502048408 12.961488670713445
Ag 8.949051909443165 16.05078404418789 11.176500038484194
Ag 11.976337667691562 11.334969850896956 9.995780099257125
Ag 14.999652485252419 14.740396698123453 12.418101412308527
Ag 12.483301985062853 9.059652744372807 8.228064966530718
Ag 7.601638525350852 13.787040167767202 10.242768648026262
Ag 15.186665941307217 8.89072165394243 7.9617657652244915
Ag 11.273686704699156 17.670958668888698 11.224311223634793
Ag 14.481937389380294 13.197144720437656 10.03870101939033
Ag 12.949639527232849 15.498942307066923 10.613727282721031
Ag 9.41963179381905 13.725158498240479 7.9750704254485365
Ag 13.866962647770068 11.47363209445267 7.800257538269372
Ag 10.932838317831823 11.335500286158732 7.376638290753696
Ag 10.69608471557419 16.05892122081901 8.977061801869493
Ag 12.27559713839425 13.727311353602683 8.404758430356798
