32
Energy = -66.44200434 eV
Ag 14.523452215061196 13.608248358379942 15.559962806520954
Ag 13.162549370301951 7.741707880143103 13.985555319782023
Ag 14.089297945239755 10.367870939363725 13.840206255940751
Ag 11.917455825035118 9.546812083791167 15.773383040919958
Ag 14.073416408293937 11.100750418297016 16.53295822660819
Ag 14.10073885738078 13.096030973237367 12.867057728168284
Ag 12.79128134750098 8.573921593318389 11.303955281565175
Ag 14.993107834622089 8.659169047463646 9.51045997901239
Ag 14.761396619766154 10.907203562802655 11.104478655931558
Ag 12.417875226979193 14.99188347044602 14.447513370281875
Ag 12.760095918178294 10.35354358473458 9.108126229389983
Ag 15.403292309631084 8.357892510346023 12.279821473348289
Ag 10.834701090081298 9.193160849018266 13.25710512872358
Ag 12.100672792056274 12.217385708840498 14.785223232086564
Ag 13.352439052716917 15.581759725127293 11.724591178493354
Ag 12.115301751221338 11.2895795941728 11.840343084973988
Ag 10.423350176110057 14.410117380865048 7.400161282645562
Ag 9.572668469091447 10.952357958783116 15.115051526817144
Ag 13.338751856691685 13.203292819406352 10.073780939927136
Ag 11.186598729697126 13.918184068903974 12.218422864063792
Ag 10.280206944709652 9.641977442562993 10.43804853752201
Ag 12.383214249770283 9.951721192025676 6.393867767023009
Ag 11.309893973321607 15.357314649970277 9.824394374569607
Ag 9.405492538290138 11.502381327997718 12.423589757955721
Ag 7.380200008660396 12.519484966795673 14.108443470807643
Ag 8.145070648718367 11.515352787042042 9.805251917007157
Ag 9.750197960805787 13.78841938771669 14.564430763819718
Ag 12.391917942787313 12.503646130454324 7.468816076744598
Ag 10.109466130822765 10.611921514679208 7.836175688958593
Ag 10.576935527001831 12.645123126630747 9.729354670489805
Ag 8.309990186351007 13.897251781992404 11.83387673242375
Ag 8.352635464100663 14.308198535687227 9.159258008473325
