39
Energy = -83.45468370 eV
Ag 14.049287185270767 8.417109296026062 8.401495595851834
Ag 12.097014235055866 9.008823147882778 6.547880682756082
Ag 16.06054018137272 7.764265245728667 10.249218341024166
Ag 13.412907892582766 7.886384100443261 11.121571324312447
Ag 9.857374186731876 10.381032553953155 7.55452174220339
Ag 11.386506440219373 8.823012734571682 9.300151537995054
Ag 15.146499203786043 10.408823326774751 10.030353920289182
Ag 12.872253134652007 11.098627323717311 8.273358580999552
Ag 15.400113360390947 9.28564118634601 12.563486364994086
Ag 11.909657815832805 13.844371421372928 8.37862868706555
Ag 14.916736714407318 12.053108113941251 12.421545334849197
Ag 12.912046581027056 8.877151402058365 13.802611103053993
Ag 10.823453020988987 8.468296545118182 12.00064491360403
Ag 9.06394440555319 13.10287460847066 7.877823113379529
Ag 8.807403988984357 9.61352627075871 10.248872016228601
Ag 14.160926093207289 12.96590327486224 9.907018747631374
Ag 14.811889973923192 10.708228138686984 14.930849951328728
Ag 12.60057358940618 10.616372733179452 11.334121708811203
Ag 10.5613436922139 11.783166516495692 9.768078154488327
Ag 11.866522129949344 13.333290995578446 11.616778368952424
Ag 9.655269152256443 11.283224811761379 12.445085104216853
Ag 13.582998316961062 15.6196795397802 9.776160825265583
Ag 8.256936776065464 8.51552195079538 12.86637385845778
Ag 14.135516062745424 14.78189983276148 12.357397773917517
Ag 12.202051392198157 11.679310054775529 13.938511828502966
Ag 6.6779832342217995 10.55484890596415 11.895192530199814
Ag 10.275262787533158 9.575933930180497 14.628974264325269
Ag 14.352260343932297 13.453241368617567 14.819427369796946
Ag 7.968981714325361 12.65455807909182 10.533178915463685
Ag 12.401684753705993 10.188766948829553 16.339284264108098
Ag 9.736946942152494 14.78444216933255 9.979199720753241
Ag 11.294341603280987 16.705978403804476 8.823797020350137
Ag 9.451863751425426 14.384319256461811 12.689326069147898
Ag 11.541715521195316 16.137824173961135 11.691966442718408
Ag 7.286781356040843 12.865018076366784 13.30266748964403
Ag 7.630797111952208 10.531612588974365 14.681735337143767
Ag 11.825927169962679 14.635069188653947 14.144652213844699
Ag 9.647477590573915 12.592417262223304 14.952476138003819
Ag 12.018108479594028 12.971582702291938 16.39607146814177
