17
Energy = -60.42741042 eV
Bi 9.241741019639038 8.285266427221002 12.148437803938835
Bi 12.224727703996747 8.4983373592716 12.672862651270725
Bi 11.684428686853641 8.259115430769205 7.872668218908445
Bi 9.354838981152799 10.406517855113373 14.356001973436157
Bi 12.244796238685751 11.530145907079566 13.631864326966157
Bi 15.064968231201528 10.538659593989891 12.669797311436712
Bi 13.912964951380461 8.80784069051585 10.159615381767129
Bi 8.937298308472684 8.511272505563612 9.080744546569026
Bi 10.82538946527817 11.834382243104633 10.884412110115965
Bi 8.657679099356026 13.360531739117434 14.443350645430646
Bi 10.285805258342297 10.853015371196841 7.737452531831825
Bi 15.237575832497646 13.163522397988167 11.266602595294328
Bi 11.259733984770506 14.940748757748299 14.680393018590598
Bi 13.347080332653654 11.688673475425604 9.237828446559122
Bi 9.180957484996107 15.623471216627246 12.531037547411792
Bi 13.199459792245019 15.233090738560305 12.23309765890281
Bi 11.011737364043942 14.791922097969838 10.205775236754794
