13
Energy = -45.73454834 eV
Bi 9.80040859197271 9.11966855377804 12.421954738364317
Bi 13.72608594718645 8.49503343206298 10.705601710279222
Bi 12.614052588975836 9.56619152352339 13.260769859673637
Bi 11.144249111109563 7.22216702212261 9.796902662505275
Bi 8.844521477028476 11.276201084908688 14.331076661445607
Bi 11.04508396280934 13.271306625052182 15.03774290705741
Bi 9.903952768085407 11.092486168343507 9.870216035092689
Bi 12.771646690784818 11.034586914511353 9.01360988334723
Bi 9.680553933025038 13.604122705796142 12.338418369971198
Bi 12.55312352128104 12.628189351917428 12.435229486271284
Bi 10.761429276951437 9.214480738830684 7.562998247937767
Bi 11.14267431601457 13.75606828880084 8.32306881284095
Bi 11.913875773729945 15.259835734134489 10.584102338482992
