17
Energy = -40.72992448 eV
Bi 13.509351625839905 14.412753018753682 12.440558447462763
Bi 16.82108618188895 11.75338493429926 13.713875018182472
Bi 14.950937485721834 12.364644184102103 11.199439607380397
Bi 8.218734774908949 11.654175683584759 9.79656798562937
Bi 11.036834122333127 14.851587455090849 12.662226325652599
Bi 17.638203383425427 12.693185721515889 11.374527599460377
Bi 10.708198887202538 10.716630912969183 9.882297671966464
Bi 16.092898614184726 14.749099953797229 12.032022226754153
Bi 9.737566421325887 12.851274901851868 11.61192524809545
Bi 12.254403075296072 11.925419813977483 11.581487243848091
Bi 10.41321122957975 9.215009562800269 11.933109763147757
Bi 9.509013592005413 13.774476960720525 14.543902925668405
Bi 15.404791568898753 13.942813220717833 14.396426839538869
Bi 14.251634282575777 11.5292471875869 13.567350218172754
Bi 8.148327050362413 10.60968952248988 12.18768954731005
Bi 10.231302838792706 11.227078710397365 13.753149606239305
Bi 12.132272828582682 12.86821419115858 14.407158129942541
