15
Energy = -52.90153328 eV
Bi 12.951363176832354 13.299465402800461 15.115357480476195
Bi 13.457676996635442 9.443829810490918 14.733125628054157
Bi 13.21048071143059 6.4875133975682 14.093869231142412
Bi 13.28419054669799 13.046194409749788 11.948731464133019
Bi 13.81010961835436 8.487547963316633 11.904490806479254
Bi 12.564047781973462 15.966429104438616 14.086387917927212
Bi 11.078594588432425 8.435646793748704 13.190544973542258
Bi 13.215350060227854 11.156843283762266 9.39045684876044
Bi 10.492408984979525 9.882518775889906 8.97902357065189
Bi 10.480389766368724 12.933094194898208 13.18002971753369
Bi 12.315000837427641 13.79837315036238 8.342616444150362
Bi 11.183227844804303 15.226277177456272 11.201829415735487
Bi 9.718978813395339 12.48472708575854 7.468644805835428
Bi 8.870175861089935 10.91969340440114 11.330921247134432
Bi 8.470361677461582 13.560240149451836 10.027045427124717
