19
Energy = -67.17456693 eV
Bi 11.75163412954303 9.415078756170864 15.91512433950507
Bi 10.847880989427564 8.807377088787932 13.087148458031853
Bi 9.127443142342447 12.845329724352048 7.611830088046538
Bi 16.938204149772165 11.739518862843099 12.579534335548972
Bi 7.599528359034182 13.873293343913007 10.017745967351697
Bi 13.766681013769118 16.508968437097792 14.275845653543987
Bi 10.347261394594984 11.022653246290199 9.829726216886934
Bi 15.120385563548814 11.255751976885678 10.312354685930071
Bi 13.85502578278067 9.54846343521644 12.665850684303297
Bi 10.66238461660502 14.076570606691774 9.898192763169002
Bi 9.990762844492105 11.688424821938842 13.206977485944568
Bi 14.538499025918979 11.598073919743495 14.789818847909354
Bi 16.27783714121529 14.891229382209282 13.292071711068914
Bi 7.641706750538721 11.094590245448627 11.295759369697585
Bi 11.38162604096743 14.67536155983224 13.806305167955113
Bi 14.690201991320459 8.688858875522959 15.662111422470677
Bi 13.747869260748555 13.556442573482308 12.022424567649932
Bi 11.300320036321747 12.538822406998063 16.03965592007305
Bi 14.569546216454944 16.467881996282642 11.351144127531843
