15
Energy = -54.03686216 eV
Bi 17.29013315079711 12.102962165780704 14.079318392517447
Bi 17.02412993915713 13.008644908814567 11.25968645282919
Bi 15.630846077966401 9.602324618784174 14.429974687241439
Bi 14.57471825080542 12.261881028636976 15.442510982060249
Bi 14.081592962914575 9.184632188096671 11.87025292258164
Bi 14.821538662210887 11.436979629769434 10.007203021909994
Bi 13.263737041036748 13.842994905469965 10.932048919493806
Bi 12.221774497329864 13.055460519787811 13.658908944059473
Bi 10.792521100814684 12.99011748410693 9.364692529464927
Bi 11.539228028020288 10.169738263027527 13.18089235094506
Bi 8.4704523469369 14.15841259800161 13.471418703795413
Bi 9.833606998061878 10.453700988870088 10.700779687921171
Bi 7.597496526223342 11.433788494424066 12.483899977700998
Bi 9.184537960832444 15.15624608844016 10.703262785963522
Bi 6.459624105977336 13.92805376707399 11.20108729060035
