19
Energy = -67.5033369 eV
Bi 13.821863162629432 10.07790719623883 8.946145177149203
Bi 11.99737486521397 16.50498427813786 10.819065934937282
Bi 9.773159103517202 14.615491160051885 11.892456591899917
Bi 14.648468406271896 15.893258278475148 12.050686086333563
Bi 15.950457639493017 11.98527210522723 13.01246973530258
Bi 16.971890498564456 9.284321527187402 12.001847331268754
Bi 11.294502933495451 16.315026197614856 14.651697287095322
Bi 12.288660670484695 15.868006039084783 17.47376607070572
Bi 12.453470792656903 11.824266275809357 14.904664061741238
Bi 13.783027812281022 14.628848844550433 14.791256261524188
Bi 13.975992845140738 9.802501177558186 12.113654473571652
Bi 15.577859765951152 10.829460362295455 15.79020178147374
Bi 13.044771679131317 18.29417157273106 13.01787401374964
Bi 11.055656240587052 11.132487887584618 8.297489097288773
Bi 13.328118858189617 13.04756360259477 8.728019185542157
Bi 9.525656440810524 12.835975071533674 14.37502988119939
Bi 11.59931381206405 12.23562460532043 11.102008434508335
Bi 15.84150626375684 8.174277867140631 14.566162060406068
Bi 10.783707568452437 13.230889377992904 17.108163646881987
