19
Energy = -67.33236284 eV
Bi 12.317923154876087 12.15423956822593 9.713691982192818
Bi 9.019424700178938 14.76646079222778 10.44565657791887
Bi 7.559023650594926 8.194595442719011 11.284012399354689
Bi 9.764261889250193 12.980496544184083 8.195578904900886
Bi 9.307462146082884 9.1598105468152 13.557883932072004
Bi 16.41777929265661 14.52433459085091 8.879324581686314
Bi 13.211713625518216 11.005377429576223 13.507899412357906
Bi 13.250968580724647 12.552362213964013 16.118402967187286
Bi 10.520604171771131 8.559605504871278 10.881658580897742
Bi 16.06251913025508 10.726189944207768 14.670169416460176
Bi 14.877749753043771 16.032259296337067 10.962641166673126
Bi 12.394735011865155 9.659436236030514 16.14041490445337
Bi 17.62913322980603 12.780375681651803 13.45682537707165
Bi 9.053092224644244 12.368360005623286 13.370324611565954
Bi 11.430889998806393 13.87541672875833 12.084429845302049
Bi 8.719664612526064 10.991272804283714 10.48295278981159
Bi 10.288793236103237 11.839773769395102 16.280678120574382
Bi 15.453162086246717 13.079043905365081 11.391019862212614
Bi 13.390877072210941 14.814352382222413 8.586967316155333
