11
Energy = -38.95861122 eV
Bi 6.514114827923639 6.994914219828935 6.167687841216632
Bi 9.304741537912776 9.307519355146372 7.267054048914124
Bi 8.8992169151095 8.623455980393782 11.759848354313911
Bi 6.563443604162302 10.008903987315025 6.104497814369191
Bi 12.374305581887441 9.70048673938398 9.266395827952353
Bi 10.754521454470066 7.139641865024838 9.974564130968789
Bi 8.52934660758014 5.8024176533819345 8.176879980074812
Bi 10.819099337737546 11.001783959711352 11.515644737437643
Bi 7.33120705511878 9.936019042443217 9.396430360563775
Bi 10.353823507011962 11.89430339948206 8.650621619886191
Bi 6.012131338501816 7.046505797888625 9.176326819135017
