12
Energy = -42.49220438 eV
Bi 10.587911985956557 14.124138671641207 9.979991
Bi 11.094404910476017 11.061113139839327 11.485854278062778
Bi 8.728831788353732 12.995996222631481 12.076995014937
Bi 11.231150211646268 6.963985777368658 7.882986985063001
Bi 8.728831788353732 12.995996222631481 7.882986985063001
Bi 8.865577089523983 8.898868860160674 8.474127721937222
Bi 9.372070014043443 5.835843328358793 9.979991
Bi 11.231150211646268 6.963985777368658 12.076995014937
Bi 6.977769008696147 11.744634237202861 9.979991
Bi 8.865577089523983 8.898868860160674 11.485854278062778
Bi 11.094404910476017 11.061113139839327 8.474127721937222
Bi 12.98221299130385 8.215347762797139 9.979991
