11
Energy = -38.27169118 eV
Bi 13.414537084487792 12.091323287213669 9.785326043535813
Bi 12.53719518103823 10.083451863223804 12.105215713002057
Bi 10.896878391902344 13.134763576554647 8.497654094511613
Bi 9.035284819719523 14.68779749285354 10.400210898639724
Bi 13.45396168790967 7.523541045169214 10.539140759411715
Bi 12.765918976476241 9.505997056381824 8.317687656610637
Bi 10.60610444124979 8.51117221126663 10.395384747769853
Bi 10.005016407758774 8.96130304336126 13.766725452450997
Bi 8.676113122214522 11.68387444280135 10.078403807522522
Bi 8.005581866677495 10.991874480133069 13.370153945701851
Bi 10.292443427591545 12.7471559235107 12.394553882416108
