13
Energy = -45.95508987 eV
Bi 12.656165648195488 8.851879569549014 12.893014369870022
Bi 10.897033124188333 12.910447097621994 13.953754383237175
Bi 13.249918797418513 11.971376349001 12.3857080027713
Bi 9.702051160282199 8.429308296043864 13.398778688101585
Bi 9.754441985931857 15.010653516035637 12.070496170199196
Bi 10.219692283994151 10.890754797870459 11.659216280016981
Bi 9.539084686983466 7.0231063997976975 10.63644221340996
Bi 12.553207897347992 7.381606061889438 10.186869376926486
Bi 11.728400707588639 15.736426867349355 9.96070172699019
Bi 9.6439705312021 13.507286668607584 9.417128868308993
Bi 12.577986643424524 12.748443868753768 9.46447032365974
Bi 8.953725740557855 9.46395267706305 8.905243548702886
Bi 11.851258315277086 9.619295027696685 8.266486744399813
