13
Energy = -44.68230931 eV
Bi 14.043884353698218 8.569295326049343 11.549282866638432
Bi 13.651849694449156 10.874224862082793 9.268076921326466
Bi 13.543240707593124 10.60692907388776 13.518463208946649
Bi 12.081190288563556 11.973443691290772 6.9799154154819885
Bi 11.06639006402061 7.697883623479491 11.858966383675853
Bi 12.188405752797541 12.7114760288897 11.457000310961535
Bi 9.312915389955325 13.723601304055883 12.864656466645718
Bi 10.289851406237393 10.62637232101232 12.927733156998116
Bi 10.275217088559435 13.332548513196484 8.85673831320343
Bi 10.606872853712275 10.177920990303848 9.790999814340946
Bi 8.63090729935518 7.706251365085276 9.864190738277772
Bi 7.626202522048104 12.930512085934575 10.661691117469886
Bi 7.468232576657445 9.888716648142703 11.511048666528342
