17
Energy = -60.17084728 eV
Bi 17.07782044959176 12.426072723959296 11.161677626990066
Bi 16.222680790892383 10.4175991888228 13.282135859166331
Bi 15.961904786572427 9.70653940780379 10.359514396901112
Bi 14.47438217340841 14.002510871185347 10.600950443190731
Bi 14.16872277377296 13.955874756450825 13.647271760606962
Bi 11.707888350672368 15.750125047415507 13.714130827022801
Bi 13.867747604371042 11.499722781819559 8.97943289177383
Bi 13.219386638626748 11.04755769076492 13.50287017330562
Bi 10.858312216171933 14.242044511951024 11.061111298431815
Bi 10.497734857180335 13.084503744892164 14.659757830269816
Bi 11.828670096547503 10.873681275336319 16.28008795892445
Bi 11.00615693084634 10.419312457918945 9.028507078189465
Bi 10.223157299395023 11.238783688856406 11.92507510670303
Bi 9.286432739761599 12.823676213816498 8.582363284906188
Bi 9.458451912866968 9.64185871100054 14.792278109955983
Bi 7.948588289496356 13.223258893561296 11.44050401589568
Bi 7.668922852409936 12.036061142636832 14.738493110769951
