17
Energy = -61.63338033 eV
Bi 11.542269753651587 12.580780136235411 6.943455827887292
Bi 11.273658736857705 9.568023599046022 7.167140458785337
Bi 8.841074229744827 11.370773719534743 7.5993458897767665
Bi 12.74281846213542 13.566383240317332 9.55298716475655
Bi 13.915675139407437 10.877576401925175 10.155144611310792
Bi 11.488979339386047 9.136564718130472 10.184447188312754
Bi 10.057677657037761 13.731508132228878 10.873504549609317
Bi 9.063866041937507 10.928689403503434 10.613700972249369
Bi 10.622380770335221 13.708025329795158 13.886415081919909
Bi 14.497428285755053 10.927732189471582 13.167135994047541
Bi 11.799850039313789 11.008940856924125 14.481304263745665
Bi 13.042321880060737 15.483954938614872 14.096783661121101
Bi 15.476750178177937 13.737262845823079 13.627862051983005
Bi 12.4500112144152 15.025832509064593 17.03317561577409
Bi 13.031309378157095 12.02245582264854 17.128680281458525
Bi 15.953130612116356 12.525466625379739 16.364149959599622
Bi 15.240050283020524 14.839281532867371 18.164018429173403
