15
Energy = -52.36411672 eV
Bi 13.194113348780224 14.853331812472867 8.605832958891677
Bi 14.143970563945174 9.782107563564738 11.631658916213638
Bi 11.241724568918032 15.787549617294877 10.61640210222153
Bi 12.121608997037365 10.852458495784589 9.634890705185873
Bi 16.276335073819038 12.072308455354227 12.688227608600414
Bi 11.934300565789364 7.916210651575514 10.375280934592855
Bi 14.047057968972938 13.654438258511965 11.265407097131101
Bi 13.555003641896784 16.365781738146417 12.4867878397536
Bi 10.036291226736795 9.861352329055943 11.679796618394747
Bi 12.183579143853214 10.422268446326127 13.989240501005417
Bi 11.176987113289018 13.180506936132836 12.795715588135788
Bi 8.473184629005242 11.98272685610513 13.99694185969282
Bi 14.567480437960668 12.350490246369086 15.04859811739791
Bi 10.396280670454825 12.12013930416487 16.0872258704494
Bi 12.574687811764178 14.743183986052893 15.014239858622433
