10
Energy = -35.67426173 eV
Bi 9.38887999057941 8.092066103039437 12.770294846061402
Bi 11.098104854432254 8.581329932848373 10.278281018995134
Bi 8.99894201758292 10.757744499402047 9.868461637409125
Bi 13.260109917912365 10.201015294432647 11.694175566698256
Bi 6.914356187739801 8.957104698569907 11.227940463315404
Bi 8.434022835481297 10.990533170550584 12.847557028412067
Bi 11.788131525282195 12.832535279169571 12.142850983406026
Bi 11.800011108769677 13.575549295319089 9.19419405397305
Bi 14.227185589700278 11.72380715817752 9.225906129368811
Bi 14.195318839509397 14.277887627155332 10.878610915235884
