16
Energy = -58.57669655 eV
Bi 11.966861357871792 14.176438394004302 13.705344411239365
Bi 10.189385921782279 16.642649155448314 13.20438661842391
Bi 12.220976306411986 10.203720319901505 14.951183436120282
Bi 15.647143416368944 8.580872159182473 13.039162924027861
Bi 14.406845958618277 11.396930593838386 13.195542955768865
Bi 13.41316192101024 7.3953983522177 14.748731411154566
Bi 9.494427918539408 12.716842959042728 12.794951659162507
Bi 13.604875693895709 15.016387408540949 11.277690261723967
Bi 11.805864093771477 17.428694944563325 10.736539493193973
Bi 13.412553636227138 6.944510863251105 11.773373933264802
Bi 13.787201369179902 10.841489556200887 10.300633826501826
Bi 9.115144065139582 16.123643489085232 10.401880084308011
Bi 10.003323671563791 9.688657167693464 13.035908585477815
Bi 12.483762217987078 13.351492888608618 9.081498758496643
Bi 9.583004165586006 13.178752383862307 9.844166850845566
Bi 11.493040935767018 8.941092014279162 10.536577440010822
