16
Energy = -56.94123235 eV
Bi 18.246689999947645 14.118537900197854 12.442028828181472
Bi 12.557828217973526 11.916970676867924 11.00177302083401
Bi 9.718642493832236 10.864441229383953 11.519081351707985
Bi 7.962254794562414 13.511876388601502 12.268843240627328
Bi 9.68125942432396 11.861959214440146 14.373246582602729
Bi 10.612767329170225 8.90973813271799 15.34681457532374
Bi 11.30407092111396 8.244295328187993 12.499084026979482
Bi 15.960967763778912 13.16187417667866 10.70717830140094
Bi 12.65123005682842 12.896900339307386 13.872683986298416
Bi 14.392916603053399 15.774739644571259 10.834765596371676
Bi 13.825405136413707 15.965210035987146 13.7655605550769
Bi 10.431555059567035 15.083102275965237 12.562505184089696
Bi 11.704390767042533 14.615466032091419 9.843972439801679
Bi 16.291600936566756 12.080299249059793 13.559425355199615
Bi 13.292028376831432 9.61529426793903 14.261085310946374
Bi 16.455048081245433 14.879404397749536 14.76591785877389
