12
Energy = -42.05990817 eV
Bi 12.068453002873586 8.993502 11.136794089131415
Bi 8.993502 10.49587971854366 10.496070952567955
Bi 12.067929283938021 11.135989063137817 8.993502
Bi 5.919074716061977 6.85101493686218 8.993502
Bi 12.067929283938021 6.85101493686218 8.993502
Bi 8.993502 7.491124281456338 7.490933047432045
Bi 5.918550997126413 8.993502 6.850209910868585
Bi 5.919074716061977 11.135989063137817 8.993502
Bi 12.068453002873586 8.993502 6.850209910868585
Bi 8.993502 10.49587971854366 7.490933047432045
Bi 8.993502 7.491124281456338 10.496070952567955
Bi 5.918550997126413 8.993502 11.136794089131415
