12
Energy = -41.91915622 eV
Bi 8.518994489632751 12.553108012229956 12.525544924947381
Bi 9.43439850841698 9.463504667597157 11.859401747976793
Bi 6.745114244345072 11.130244367377331 10.59362885051911
Bi 12.274889508497957 10.633853046941699 12.217166493320411
Bi 10.887702426937777 13.467651538829479 11.08173204359735
Bi 12.872349898313773 7.554519981284718 12.454293774850298
Bi 10.612495153612862 12.362635886113885 8.30947667910941
Bi 7.500372259512392 12.169029654245819 7.9690829424875185
Bi 13.224787711470949 10.549959435272962 9.397831451674621
Bi 9.333645657141814 9.610585360192355 8.764463777437701
Bi 10.764417018052447 6.669894012968164 10.652807020196526
Bi 12.134664422538512 7.992865322571615 8.32712204728862
