13
Energy = -44.8583092 eV
Bi 11.050342550594204 11.210116748289236 9.325145950532901
Bi 9.765591028716521 10.761443892967108 11.9394561531749
Bi 12.483897580993885 10.699861126557677 13.937729875242402
Bi 13.700482664551869 15.715419953097937 8.066892100703658
Bi 12.641269644191246 13.693773205743595 10.191928536677018
Bi 10.273879537894842 12.861618553270182 14.03073373394661
Bi 12.122759803144447 15.03620824889191 13.056043642373158
Bi 10.43005605952812 15.723763729175655 10.659351975498787
Bi 12.516651808096482 17.719144621892543 9.707792810169629
Bi 12.449976253959782 8.98976028617047 11.329677145404304
Bi 11.001414154730167 6.594765801584846 12.6633784938245
Bi 13.782823322323313 6.769509640090501 13.653354715009348
Bi 11.611850685043468 8.055609692268506 15.269510367442953
