13
Energy = -45.03289172 eV
Bi 8.162828053043421 8.037656265886937 8.282603929779977
Bi 10.40087344266535 8.835462746169854 10.264388956702177
Bi 11.939499946806869 9.19788397202569 13.466610387614368
Bi 6.9690741990071094 9.37106699541557 10.561126713016854
Bi 8.767207985474418 9.09527724321506 13.246436843021279
Bi 13.254463001995482 7.917190388865625 11.157115548704498
Bi 11.648142780476265 12.021505017184833 11.865907532036655
Bi 13.250898498529212 10.09537931293688 8.820929602816154
Bi 8.927867428922957 12.136558522004828 13.364561438859582
Bi 9.013634193578419 11.97178755046213 10.24973626680342
Bi 10.552868964107708 10.297307637359125 7.373249527086463
Bi 12.241940684843236 12.890942957900105 7.810629620098571
Bi 10.925003426623805 14.405348560137885 9.936647267065553
