17
Energy = -61.64639981 eV
Bi 13.34466002544854 6.825674986208003 13.502986487994955
Bi 10.008349796219838 9.118490208360532 11.382112388216013
Bi 11.260087731982027 8.968162926772326 14.10313124351905
Bi 14.407803136619115 7.737511040777578 10.82005715256948
Bi 8.962139996774527 11.990260627770404 11.770497171898102
Bi 12.430949122625753 9.746825063885911 9.687436590220447
Bi 10.15345421676942 12.54274838634321 14.502281896866219
Bi 15.365756615845196 9.048656833013524 13.353311166672324
Bi 13.046435768096146 11.43392585557783 14.022224723752041
Bi 10.985139344848958 13.390248032266626 10.017285566882462
Bi 13.529864922312683 12.163407531707975 11.127006980331265
Bi 10.666656787663356 15.524934162608542 14.269144580973553
Bi 10.421793784010426 16.04966839297077 11.314834943076573
Bi 13.65415688240792 15.418050638081217 14.71633334108717
Bi 15.09209611945215 15.44284478514534 12.051539064087718
Bi 13.106017808947213 17.311491572873507 10.739356775792501
Bi 14.346874733292102 18.06933574895275 13.402696719375323
