19
Energy = -67.48518716 eV
Bi 7.719934868415768 12.007053220517784 13.487001968103018
Bi 14.112352126326861 10.75798445438038 13.752633380931155
Bi 12.46757711206826 10.136432491389352 16.433514460314267
Bi 13.460652155314515 12.859369202694456 17.026785663366333
Bi 16.492993764589915 13.092459140589781 11.446696300974958
Bi 8.035878787055974 14.963969271913054 13.009095673514159
Bi 10.678796199618672 11.67989769849155 14.352727618019475
Bi 15.800696445250436 10.248371260569487 11.015498870713719
Bi 16.68484956724365 10.780608763671053 15.383956712204222
Bi 10.646518559204498 13.923842187465139 16.308157748942673
Bi 12.94670264038525 12.351659115499524 9.34281006372432
Bi 12.530966753054216 14.175826177837644 12.231032212492405
Bi 14.356158748989232 14.975338042410439 9.951246003210613
Bi 10.592868521425054 16.05128131675448 14.151250347216287
Bi 10.098557755423554 15.110919559424305 10.545728145431454
Bi 18.241863211227944 10.637750676461936 12.75057989762426
Bi 10.276703902609835 13.08318654302571 8.152710522028755
Bi 15.436072217260282 13.433047021337197 14.541969711581249
Bi 9.936303324522656 12.119077597932664 11.068157256502117
