18
Energy = -65.62131253 eV
Bi 17.330194258004557 8.818690968265267 11.466421576673012
Bi 15.501921425103635 7.052123040427103 13.11451802632062
Bi 15.454329365331814 6.889667163738581 10.06512348010677
Bi 16.04600023751506 11.57003744231827 11.367375467924196
Bi 14.386928419238131 11.119225438482466 13.825657215304311
Bi 12.889960296979728 8.646087569438293 13.066815144044424
Bi 12.853636197087075 8.499984166801495 10.029804302202253
Bi 14.31972155448831 10.895706271387823 9.015668954945186
Bi 13.029122867368928 14.88767199559172 11.412696953757534
Bi 11.997600222657262 12.874623772236916 9.365794344607512
Bi 12.070318172808843 13.167593438078406 13.722252319405927
Bi 10.481832116154193 11.550476797287054 11.67169691678233
Bi 10.244956155938569 16.158210178199177 11.191204812423157
Bi 9.992791781826066 16.64249554255142 14.164004075704046
Bi 8.520250715176143 13.703078137295982 10.771057953686107
Bi 8.566505512983587 14.334104762223705 15.507165491521704
Bi 6.69436784692588 13.889210612332715 13.174657244820706
Bi 6.96285383021741 16.64430367914815 14.411376695574253
