19
Energy = -68.32435161 eV
Bi 13.892290987549112 13.467927538700849 12.933107467530567
Bi 14.292094439802753 8.887261333365794 14.229325683743106
Bi 12.247665935057022 13.161366678632126 15.445330043769602
Bi 12.106707434901862 10.155543259112827 15.885163687274169
Bi 13.37778731406547 10.562000047269088 11.803328908683742
Bi 11.493497510692288 14.73647126449223 11.622669526513764
Bi 11.397743865415801 8.702149496657777 13.323669003870428
Bi 9.690634644830519 14.036313024959401 13.995098704397025
Bi 15.095372223227521 9.113883475143467 9.602197891781284
Bi 9.657539011794215 11.622293456745814 12.131872619798791
Bi 7.931891139578865 8.721567346472277 9.676613266085953
Bi 12.469122540672428 13.067054700586356 8.952657349806323
Bi 14.423230063598988 11.095222302154939 7.458853875599508
Bi 7.032973625685461 9.951230558101742 12.2782002928451
Bi 8.355095268578811 13.378260049117307 9.899481740794338
Bi 12.85582743930459 8.543372691959968 7.637649992042172
Bi 10.792238364575065 10.165974283246447 9.299284700916653
Bi 9.901770727677002 12.398984727637519 7.482645825151386
Bi 6.194534724393885 11.164090357155306 9.641131789734713
