13
Energy = -46.83017267 eV
Bi 16.99103933910974 12.299465864070482 11.825577165987402
Bi 15.100026893757697 12.626923724346643 14.180443203196836
Bi 15.472745952027019 13.480319956082369 9.537441251811952
Bi 12.755133437987945 14.084259217603055 12.966668407970207
Bi 12.586117239487741 12.960330866101243 10.186704565175575
Bi 15.242863178312529 9.99168702515255 12.741337397112286
Bi 12.98081682389761 10.035540047827645 10.750142147704777
Bi 8.565136929247466 12.690022158819582 10.011897112243583
Bi 8.512979702076489 13.720191470631937 12.855221923922555
Bi 10.7338977919518 12.302749135290272 14.338718292551414
Bi 10.925807729648092 9.641530767451188 12.928508361282537
Bi 8.736561174603818 9.788827734872445 10.848252253190743
Bi 6.57626943242023 11.557547656278597 12.008483542378965
