12
Energy = -41.08344729 eV
Bi 10.566927804405767 9.40763923675561 14.205391339613573
Bi 11.170287800334096 12.078075760118383 15.557319391305736
Bi 9.858957352866506 7.448480092703489 10.949484630775462
Bi 8.809124377008626 11.69680611921511 13.636589465893056
Bi 12.459329800562678 11.7155384589494 12.748087559112818
Bi 11.795129792098313 9.750342316083026 9.952709770341466
Bi 12.5164908876002 11.106013735464405 7.23775641732398
Bi 14.506930350572112 11.528208049149837 9.440702564468182
Bi 10.754865173309764 13.666145098033715 11.149350807287625
Bi 8.393006792746002 9.868145434577416 10.720705567208402
Bi 9.978696396300181 11.935269614406568 8.732256192888894
Bi 13.760274774389222 14.05160295365754 10.846258836601418
