18
Energy = -64.19570355 eV
Bi 12.688502241039114 10.828015409591277 15.074630171980704
Bi 18.04435858339009 11.739914053169546 12.925363264321996
Bi 16.859955419476133 11.621316652703792 10.114157142855003
Bi 17.04263637209608 14.23048650936088 11.60491928543716
Bi 8.907609190852025 12.294097814457238 13.360685796027749
Bi 9.696191438560534 14.668323605174143 11.656114663271952
Bi 12.913068041926394 12.934357848626874 17.181534504508182
Bi 12.018369428116175 11.643610724808157 11.807885738896964
Bi 14.492604036810524 15.04810622720791 15.75854660397634
Bi 11.122916945138343 11.916836783286916 8.742518491536414
Bi 15.526629940003485 10.093966332336977 13.973625902315536
Bi 14.488702384633875 9.901861750352522 11.135663887913596
Bi 8.397773032969246 12.23893323699117 9.854788744435725
Bi 10.608678627678195 14.094675725272287 15.286097072104754
Bi 12.426703783872638 15.643110349180992 13.42921844720151
Bi 7.861305578677662 15.096278827167104 13.977031132760802
Bi 10.008741060828815 9.720827491115008 10.441959753351506
Bi 14.617602753200073 13.332823708711462 13.283370695244319
