19
Energy = -68.37741099 eV
Bi 15.079282767046912 11.559677639997453 13.676707065942301
Bi 13.503654342297871 8.896862677895577 13.902851516235856
Bi 13.015678796940403 13.665880518565125 14.462460345024521
Bi 15.163325148783828 12.910787644183273 10.918212637094015
Bi 13.355741932798525 15.216781245502741 11.845520044884566
Bi 11.133258552521495 9.340439694211002 15.780839311642255
Bi 12.471567462116747 7.550302547011218 11.384015482075823
Bi 11.521562267648505 11.780928808940375 12.536625665012059
Bi 8.678918910910362 8.454690394229255 14.27388650780001
Bi 13.845972338957836 11.559488814115522 8.547978049356827
Bi 11.980105839664693 9.19242230380615 8.870195145690385
Bi 9.277270915110819 11.418618121718596 14.549116375136316
Bi 9.43788065071535 7.52511369752238 11.470882873342111
Bi 10.48102877392572 14.215495553762926 10.961575674076391
Bi 9.570020232102815 10.360257048955617 10.29741837651578
Bi 11.80913506808359 13.787532784529235 8.27635486424454
Bi 7.6830706809441605 13.741637406166301 8.85967214732059
Bi 7.639438850625368 10.864648213377452 8.002575135879733
Bi 9.40589376720908 12.880518092492176 6.575768455498017
