10
Energy = -35.16549728 eV
Bi 11.591715338841134 12.509173902503916 8.224066055657923
Bi 10.958222616402999 13.255982640295787 11.109099973549357
Bi 11.48054846681541 9.557278459961125 9.210204461312344
Bi 8.736783288144727 12.9664283668877 9.114438822235842
Bi 12.203770015789235 6.655659403913144 9.567745561240358
Bi 8.885172389400271 8.551576756259973 8.187410361622787
Bi 7.2235933434167166 10.433425751336603 9.91324351074085
Bi 11.27180421204928 10.370768380587725 12.131877393649901
Bi 9.428645149920918 6.743157378735193 10.54066469908547
Bi 8.540101006023464 9.322562705191606 12.405730122212539
