13
Energy = -46.71625528 eV
Bi 16.650245947209598 12.162678355865987 12.028546508279291
Bi 15.197535143503769 10.339391329153273 10.102740750926852
Bi 14.664175426459181 13.309845419761178 10.032675153917003
Bi 14.05537555716177 13.414340487546294 13.02571204687896
Bi 12.263293445603974 9.524410479242931 11.130473299811884
Bi 12.910799958135106 10.749361842879692 13.835626981527541
Bi 11.298371402041008 11.997540580039217 9.707579055851639
Bi 9.562690919370597 9.140806341274416 12.913248890342013
Bi 8.532116035342725 11.0186735477362 8.720712404858284
Bi 10.041699205853972 11.760063513252174 14.271149858845746
Bi 10.00286193309978 13.625708810234473 11.905047596435143
Bi 7.2170089844721055 9.798640245231363 11.147053141958555
Bi 7.248687247259658 12.80340025329542 10.82429551588033
