18
Energy = -66.11990042 eV
Bi 17.51071871756336 9.80471318915523 14.37516512580908
Bi 18.654550304438548 10.922602101686937 11.810425329600228
Bi 18.351486008537897 12.736643952790935 14.210723396884974
Bi 14.560911631602632 10.656268970769002 14.254439720420471
Bi 14.327798904307516 9.716065538835569 11.41249316664653
Bi 16.292176225597487 11.497197520768664 10.006079588230303
Bi 15.392757459127683 13.56263251085481 14.094238514986802
Bi 15.649463739705514 14.187952171977981 11.168546334186773
Bi 11.929260889126263 11.195494002972072 10.296426065334774
Bi 10.249212115144658 11.005591841512125 12.793145292040295
Bi 12.806293231110002 14.15535060341283 10.12458898912013
Bi 7.9477705023263185 12.51089994191249 11.594205584626744
Bi 11.570037130975004 13.154580422312085 14.425103959827082
Bi 6.694383456654499 13.029714063986296 14.32384698901273
Bi 8.823659214017871 15.42411139420498 11.446666316880695
Bi 11.61254624239707 15.49846283595007 12.545624611060088
Bi 9.057438434093354 13.997112073513284 15.95168213457547
Bi 7.580981542723213 15.956052612833181 14.178044630204857
