11
Energy = -38.84169657 eV
Bi 12.033303823267369 7.861902657443277 12.4718004220126
Bi 8.934837594808153 8.184676375220512 10.117586955968921
Bi 9.794505473122106 9.189261017362169 13.782905672346644
Bi 7.593746059994667 8.436508536364654 7.40784513049257
Bi 9.017035469176088 12.734211061748802 8.811390776755532
Bi 8.197788656802569 10.931245591411505 11.161545261091623
Bi 8.454352696210718 11.078158795117451 6.312677813970773
Bi 11.257089354234985 11.364129114049343 7.472566580073797
Bi 12.978639361567975 10.4699097327781 11.28031784682909
Bi 10.630743661592438 11.86721653292496 12.67317728379044
Bi 11.71969993842496 8.798954569611062 9.110912062659894
