16
Energy = -56.64899913 eV
Bi 11.992590695079203 16.36845792017491 11.50907612157714
Bi 14.317004345938852 16.06696161219878 13.295826750356753
Bi 12.546921822448661 13.592535731478288 15.189084827493847
Bi 10.334694092935216 15.160759349518866 13.683532825505631
Bi 12.04375067977141 13.72707420112309 9.481098069653802
Bi 8.434653206585388 12.90251273466582 12.967379214525689
Bi 9.928552853302808 11.551054404690626 15.213269865716532
Bi 13.657383417067667 13.284415113212297 12.224456291572471
Bi 9.504178327987015 12.195177383643491 10.16459857491921
Bi 12.947917357703705 10.834928802066113 8.544392900014783
Bi 15.867688830394135 11.084826636646637 12.479547852827642
Bi 14.524369272216122 9.125590508618618 10.49418614805917
Bi 14.247190280868598 10.759151837996495 14.934737307820928
Bi 10.446246926278475 9.329859331099327 9.502076187717734
Bi 11.83997184580979 10.631749962723669 13.058571727018425
Bi 12.024642194910154 7.906022952032231 11.752343363062284
