14
Energy = -51.04561717 eV
Bi 13.803967649157777 9.886817976636863 15.175624568367638
Bi 10.872448708834066 9.805983045177625 15.921640558073037
Bi 11.625729540316197 8.518005694416189 11.64067494632976
Bi 12.28646275438247 12.473503831819453 15.744147677505314
Bi 13.743976120925348 10.561343194439848 12.189075709243664
Bi 9.341396409000636 9.517972758951155 13.324102070243871
Bi 10.631997020897032 9.607325025086428 8.966483423205784
Bi 8.662990828175028 11.760215255348335 9.746649105214363
Bi 9.299440907453583 12.430251015928045 12.624856730432269
Bi 13.143983298534193 11.155451889009026 8.30562625445648
Bi 12.223964197673816 13.11926502425783 12.726200462474534
Bi 9.926168074837868 14.218800406853642 8.529481467202219
Bi 11.921433587198337 13.23580702261706 6.4740548214026745
Bi 12.846176164539793 14.014370243342594 9.285832259253313
