10
Energy = -35.84887091 eV
Bi 12.65443396366852 11.454091758270835 9.959801133489897
Bi 13.669258210849824 13.735880476784827 12.076206776932311
Bi 10.899249597982884 13.875076788281728 13.287088797649593
Bi 10.156043747641462 13.076173855328364 10.411754647706156
Bi 10.267696030754108 10.455618741170914 7.939544540045728
Bi 12.80843023492371 11.743807147526828 14.076832948908171
Bi 8.137476427409043 10.859525538541648 10.052078833997864
Bi 9.321895429592349 8.612153211968389 11.749633777303469
Bi 12.237761310482627 9.299885872897475 12.11652788266113
Bi 11.108219976157121 7.989783691390478 9.391799712395
