16
Energy = -58.39415262 eV
Bi 13.657402236869437 12.653124841621596 12.542429052856138
Bi 10.98152304983666 12.68543114981784 13.999396194052178
Bi 13.37739123773858 8.940425070969082 15.164681092074408
Bi 10.495958416282223 9.820596298982668 14.839937004689963
Bi 14.550369902134403 9.766184647727965 12.498541153949903
Bi 13.013483985700068 13.152470085473468 9.62386561752729
Bi 12.41270805293729 6.472540972474283 13.566031038131994
Bi 10.742411078863764 14.948406308512668 10.41615738785668
Bi 10.030483549916942 8.037540202750668 12.43586544552865
Bi 12.65620971694151 8.006400981824788 10.919532819753364
Bi 8.881296917181777 13.083954696617727 11.855920341662209
Bi 11.565221424427735 10.719220042305235 8.625864368414721
Bi 9.288839805309456 14.84319293699177 7.754885036659945
Bi 10.293398867254608 12.363640394965886 6.352304408351331
Bi 8.9224497956324 10.66896461799364 10.071226373842594
Bi 7.620187359123489 12.327242147121067 7.822698060798962
