10
Energy = -22.3483122 eV
Bi 9.79083185179576 8.937184698089483 8.396609057771942
Bi 9.604924448803954 12.116203337329239 10.56884834350657
Bi 10.753106482475943 11.056038229442889 12.61208823862404
Bi 10.09384877775643 9.033682129337995 11.058509096701371
Bi 7.878508377594061 7.590738116787558 9.825409387931625
Bi 7.755147643982154 10.246524665155981 10.482625204763202
Bi 11.960872536388635 13.258796425788406 10.074848432909159
Bi 13.129194375606204 11.97389014598305 11.96026910174885
Bi 12.610337530244317 9.734445629292104 10.674114379266694
Bi 11.364041172586408 10.998332260730306 8.82689447390385
