11
Energy = -38.89519785 eV
Bi 12.257817668818026 11.424764732705853 11.756756447425234
Bi 6.620822342841499 9.59751283819975 8.467115600687217
Bi 10.206062957373641 12.12949448954948 8.215484865002948
Bi 12.983074450121004 10.883479422232728 8.521108661680069
Bi 11.95854630456772 8.09481503325673 9.263543837557902
Bi 7.994738978764303 6.937886668524144 8.464671997950518
Bi 10.631158608364995 9.45452242445208 6.950480655406651
Bi 10.504358234621824 8.968341859491005 11.799092728249962
Bi 9.323847984475982 11.62434895887182 11.10203944177048
Bi 6.70908340775043 7.97433251747971 10.984321859795322
Bi 4.972863867488515 7.05933446491674 8.693117707497285
