15
Energy = -54.25683761 eV
Bi 14.789599163018753 13.490292150772426 7.888758695154347
Bi 12.191389389218264 15.0582639831874 8.074299661703018
Bi 11.490207784637906 10.898135604167393 8.223925447636855
Bi 14.19855540792766 10.98235713630118 9.59045768330902
Bi 14.370423540621532 15.525782131686972 10.057564784916597
Bi 10.623845214205735 13.210573896653111 10.011848624203534
Bi 10.20090412894485 8.46273072391625 9.606008768849591
Bi 7.7968876576986945 9.968231075661977 10.517945640188438
Bi 13.113133810714382 12.8606076177531 11.72889111533372
Bi 6.951993409092554 7.68192044810254 12.369478675964944
Bi 11.79442864114838 8.239454250989228 12.13705199902453
Bi 8.722800728166124 11.634362831593927 12.87928193930813
Bi 11.506222089704652 10.844705688147341 13.572554717699642
Bi 9.542535626387465 6.99022298435361 13.758411243072704
Bi 7.88187672262513 9.327162790826227 14.758324317747322
