17
Energy = -60.26273364 eV
Bi 15.297739786281143 9.480973948778638 13.602086883395897
Bi 9.711581690391442 14.050147004742948 14.631867956696386
Bi 15.320582148014314 12.882906216493682 10.801028360614843
Bi 13.454904973747995 14.944740094253415 9.864107198873661
Bi 11.105128885811952 14.061458260675119 11.852634081316356
Bi 13.287580119096548 11.816302423071644 13.294320096686942
Bi 7.386081389333031 13.894888378474562 12.761301680013435
Bi 15.021341985469673 8.419215935017803 10.784739459027492
Bi 8.770498279953994 15.36673190508555 10.417742451784388
Bi 10.56583654310022 10.933243906919659 14.586995330061288
Bi 13.634113669213948 7.0081920840304255 13.052336063943562
Bi 12.027795012467832 12.836106506863606 8.178115175635057
Bi 12.970425718922506 10.723059381543903 10.445928218037341
Bi 10.750105289169055 7.989708639900565 13.200227799910008
Bi 9.293578379078774 11.4941911365288 11.79240546512681
Bi 9.113802625619858 12.871284970498381 8.717654362510366
Bi 10.318584871556835 8.87297641520791 10.463621710555078
