19
Energy = -68.24686904 eV
Bi 15.48432264243709 10.761313408666583 11.592130972100719
Bi 15.927358059823723 7.749994648882085 11.314311016994674
Bi 14.340245694333657 10.95099998213383 14.3601655574528
Bi 14.262337201222056 15.037865596662014 12.391439303233344
Bi 13.826791929121848 13.611519720002033 9.767915365679638
Bi 13.843424472375203 6.447402068135387 13.109905272605376
Bi 12.310252572224869 8.748940901914333 14.434267871995303
Bi 12.237975329842614 12.880674521228842 13.22695755373686
Bi 13.611192965873139 9.213858344717448 9.80064422425002
Bi 11.579566400839852 7.908813861312043 11.649437040423958
Bi 11.805520178089502 15.7933305652166 8.880575982304443
Bi 11.939230843848263 16.918733508843065 11.703341291066192
Bi 11.2947706841929 11.708756906998117 10.254541508316354
Bi 10.50706913138717 14.189594829303543 15.396829241953752
Bi 9.549595630309204 13.77512069950845 8.725191220096434
Bi 9.565014294411561 11.365672351174998 14.851426849817024
Bi 9.444564350285034 15.899187391072426 13.140080647038616
Bi 8.684977208288938 11.212136292856382 12.071989598066223
Bi 7.933518338174688 14.044178633049928 11.300104209484353
