17
Energy = -61.73238831 eV
Bi 12.250230417734487 17.405398821220466 10.910639268648172
Bi 9.976343583204024 17.11801032454112 12.869996022030081
Bi 12.85106886031012 17.460702654262544 13.871665631895889
Bi 13.381840361848369 14.808349089415561 9.844174003049416
Bi 10.033393452213318 14.336483666878483 14.07134667317109
Bi 13.012144970465311 14.463302681024082 14.648563272916002
Bi 14.847383709144417 14.061408204724042 12.33384290828649
Bi 9.162258726031514 12.670468982935054 11.718895971580658
Bi 11.07208910083365 12.91072219010079 9.377680464148673
Bi 14.542142984135024 10.88004930995829 12.104557624469857
Bi 10.741509232379615 8.746987901847428 10.516447982396093
Bi 12.949265628184161 10.551138244084115 9.562020897455314
Bi 12.57705823963746 10.658242284516174 14.37686282434082
Bi 9.927282159000974 10.065892817228374 13.082883070755532
Bi 15.09953067989943 7.66105111931906 12.230623169504373
Bi 13.191601956218483 7.637239107121225 14.566684807456816
Bi 12.341107642835555 6.535402632777324 11.875092160539005
