15
Energy = -53.56873573 eV
Bi 7.1897205840874285 10.249577822795331 6.824872993390391
Bi 9.063235764115937 8.676172551087237 10.528532831872862
Bi 13.122182156878809 8.33091679570785 11.518172875721957
Bi 11.536820373286105 10.49068065562839 8.03638618480276
Bi 6.303422316141643 9.593794287207455 9.717359414745562
Bi 14.661327839175682 10.423577829877667 10.014949805719526
Bi 8.302133804983239 11.620920984050965 10.71840376008673
Bi 11.884196673744201 11.04559243871942 11.962622746538846
Bi 9.28762576725059 12.441618893879898 7.232816769460661
Bi 10.314731615084424 10.315985984299036 14.565849364019416
Bi 9.712814755043192 8.583508419217164 6.425764832586292
Bi 14.690033108313875 10.428890545798806 13.024899110257033
Bi 7.58546013828256 11.299815254905846 13.712883902306286
Bi 10.959321152827032 11.020333669580642 5.103004818776543
Bi 8.265526315374379 8.357166231833823 13.492033225125185
