17
Energy = -61.78822058 eV
Bi 15.465016932160534 8.844919550344688 8.727114099027073
Bi 13.075612871328333 7.4477642407547116 7.512121414980317
Bi 12.365246996811528 11.855343205460274 8.121992069834086
Bi 14.154457960710154 11.081156614869059 10.408180553356159
Bi 13.928084532981705 6.760994999587625 10.330860220997831
Bi 10.73701845156381 9.364566273657374 7.7616583241900985
Bi 12.132602094415315 12.445044350970791 13.116607030650128
Bi 9.975035225265735 13.312955390230748 9.294896938838358
Bi 11.297686900763914 14.895505808619788 11.527874425119322
Bi 12.631356970863077 9.016615656225644 11.991860449652048
Bi 8.44199816084584 11.209704669256928 10.937747693890937
Bi 10.010427389235096 8.637224144718033 10.57940256873381
Bi 12.648962718641872 14.295102104021252 15.545407881742257
Bi 8.668324892880607 14.831374786221451 13.046944631874121
Bi 9.207721274522672 11.941413937494273 13.830496272287556
Bi 10.214755566352245 13.314189745514541 16.966657106679722
Bi 10.088982389310745 15.942441259721528 15.541174670047068
