11
Energy = -38.03355674 eV
Bi 8.566065909966214 8.886913105760994 7.446159942825191
Bi 7.998379977703433 11.413259823399812 9.026075137507718
Bi 12.500519312020987 13.562163249890768 10.86641631609755
Bi 10.465149981973202 11.22448208918571 7.35216712851997
Bi 12.757731591799105 10.87834513915964 9.462702537961482
Bi 9.587512388050298 13.771025470769102 11.012799935958881
Bi 10.276804824951578 8.53181463936233 10.170411518179126
Bi 12.055550052626257 10.818037568890217 12.487587925035283
Bi 8.991928872795963 10.809631337383943 12.033692661743913
Bi 9.624694386304848 7.651112029999659 13.036466001720314
Bi 12.447783809483507 7.667930364735362 12.24440466302673
