14
Energy = -51.06516203 eV
Bi 7.2936761362973135 10.771418672190391 12.027774303024728
Bi 10.014550477988596 11.875066767517593 12.627622447056678
Bi 7.598310687386521 8.519168909024444 14.059231109075288
Bi 10.120996665743064 13.570776952070737 10.1349481885114
Bi 12.935906388367192 14.376765471090886 10.875883597779453
Bi 11.805887087384447 9.620029032253438 11.78398282688112
Bi 10.372278305846946 7.486228292671352 13.425527678089063
Bi 8.025584274707589 6.517231588641145 11.78296973482014
Bi 7.697437763942295 8.777283130233274 9.763759545403637
Bi 14.662729682082421 11.951191193838126 10.341616203462063
Bi 14.562320573169089 14.235144019577813 8.331216698543125
Bi 10.623592971451906 8.879462370526097 9.124647517301117
Bi 10.527653369810814 11.617239388572678 7.855890100378308
Bi 13.531990311239365 11.495296830566675 7.572323954128255
