11
Energy = -38.77493875 eV
Bi 12.626736333214872 13.226494694676237 10.622128825719985
Bi 12.865360439521506 10.911079991463978 12.596135519540692
Bi 10.590970281561507 11.728967791779148 14.487444902714408
Bi 14.248377596489469 11.55007483490583 8.639073600178499
Bi 10.471596598983012 9.333026730716368 11.56106935041776
Bi 9.654870129524916 8.795891996179538 14.53291996635181
Bi 12.303264494571422 12.17000607202075 6.380493937160157
Bi 8.718762560938638 11.800586118004626 12.050567720126002
Bi 10.375819183332814 12.262253662509162 8.773071004098973
Bi 11.892383464913543 9.69991070515513 8.05984292917965
Bi 6.9977003067532575 9.912725199688069 13.673371558629874
