17
Energy = -41.50861523 eV
Bi 13.500158392458843 8.942059669603845 13.91388779449692
Bi 11.454950063577977 10.836862703700596 13.065503080479974
Bi 12.3593899076133 13.097039370625254 14.14110858661872
Bi 8.847306617254146 13.058048098524715 9.988466228818853
Bi 14.312308012443454 11.327665372898453 13.266399889851217
Bi 14.813618421221621 14.329595643595212 13.033884509398764
Bi 13.221566304619989 12.845255890441216 11.261182427068242
Bi 11.086601794115683 14.542702748417891 9.966948261557173
Bi 11.135606426237073 11.585039915931238 10.076977067742448
Bi 14.773455269639935 13.052114434762974 15.422539243747591
Bi 13.320180893023501 10.226320064011547 10.96234786053879
Bi 11.567351169802794 8.913096617582468 9.393731414174121
Bi 11.670961529410924 8.264399624118939 12.171239358793239
Bi 10.528592969819506 13.283967788969687 12.340629356858761
Bi 9.649609381166234 9.791842298459478 11.353573507273076
Bi 8.340880232231525 11.793416048396162 12.397397292435167
Bi 12.549004733217878 15.351146492503306 12.077169475170926
