11
Energy = -38.44859598 eV
Bi 10.179278778816998 12.772151584650942 8.273707163862522
Bi 12.135646911919881 13.94209950831761 10.272860440704587
Bi 13.001267011529173 11.514566328992156 8.710374731570417
Bi 7.484754491349529 11.772148697248486 9.630037273924186
Bi 10.411510806479985 9.41711334415404 9.702038162904133
Bi 13.601954694273246 10.081160287121081 11.480861587886482
Bi 11.924357060740736 7.522251762322049 11.574426646691256
Bi 12.13704618769127 12.319477081162635 12.908426620777512
Bi 7.389789675179304 8.723535059063238 9.898263063602487
Bi 9.453356568150527 11.146356398362357 12.008369144909631
Bi 9.023897747900435 8.13581219971922 12.558260915168718
