19
Energy = -68.20119183 eV
Bi 16.366781467245058 12.85251452301501 14.665471472675964
Bi 9.067899242667831 12.456786189364333 10.882981490696778
Bi 10.58455307028055 8.953303881476689 8.647762544335048
Bi 10.974860004900169 16.566968217503835 11.841483423522503
Bi 15.817820061041227 9.479008887341639 12.827251218876487
Bi 13.434754310708627 11.246449227952759 11.359234328866998
Bi 8.120778086851804 16.544797708642164 12.78764198737036
Bi 12.127766182948905 11.649301336821962 14.34443474978104
Bi 10.037395965836645 11.922765686575191 8.019972257789576
Bi 11.262488059740916 8.77571495029141 13.482852758255953
Bi 9.230115056320153 9.423197008436043 11.325313080394128
Bi 14.693439376038217 10.38979483120678 15.433218631027616
Bi 13.52773559643523 9.03052628285062 9.222593111816956
Bi 11.744168810294878 13.469016205925366 9.953108412962345
Bi 13.55975551348015 7.591244699600316 11.920290831290444
Bi 10.19998794971737 18.00931424552858 14.401161681676605
Bi 10.214468892721671 14.981681521754531 14.292376038461969
Bi 13.933792010498275 14.26265647726045 13.524226297527125
Bi 15.9445008282525 13.112726068796578 11.658363337124223
