10
Energy = -35.70178647 eV
Bi 11.82353621573996 7.410938608178445 10.606271993715852
Bi 12.11517591048705 8.636134265325284 7.862819625571739
Bi 12.82462599361051 10.2481961731818 10.31772352419561
Bi 9.765218208832742 9.961214062637442 6.55082525793757
Bi 9.184898597328292 7.5364110081851425 12.029986667656523
Bi 8.550554184873528 10.435984274217894 12.595839832473807
Bi 6.8161726948290715 8.849804762471996 10.696243380777615
Bi 7.107928454832013 10.084979041083342 7.977634544529071
Bi 10.446257039122194 12.041529962621 10.863151796032712
Bi 9.048458249036905 12.390735843426457 8.199652929450261
