13
Energy = -46.7721898 eV
Bi 16.734556650489687 12.52530046476759 10.61080659783104
Bi 13.900043258970548 13.163553152085413 12.154215149083592
Bi 14.71305992075602 10.361740920863033 11.220816283104353
Bi 12.677438236096851 13.94552611441225 9.472048730422362
Bi 11.340105788152083 12.833775401061244 14.023579856419007
Bi 14.67983828321421 11.802227665912262 8.536584537050198
Bi 9.272596540232259 13.627119594554918 12.004893736611203
Bi 10.984115050991655 9.56705973594666 10.571188251180171
Bi 10.161981059320256 12.242932672053739 9.497039990337438
Bi 11.534820007503821 9.903849678461906 13.539240861823679
Bi 8.604102934134986 9.325487893646926 14.234099003030455
Bi 7.192196188003148 11.517173494622378 12.718079796527062
Bi 8.031073451549952 9.010180581027164 11.243334575994918
