11
Energy = -38.64555705 eV
Bi 13.628871522629067 13.183133217406027 10.299529747444186
Bi 13.651578741218316 11.416569509907058 12.790838271525626
Bi 10.698809050221149 13.942233081877898 10.558129585245837
Bi 9.433618559586474 10.825701793042096 9.287045364286067
Bi 9.028821436738937 7.056956506674281 10.370988845457907
Bi 12.795353893337314 15.455303280265476 12.157360773625776
Bi 11.483045013508649 8.512913116443768 9.213026461697941
Bi 7.373101751690718 8.745538980811169 8.500823721071177
Bi 12.24970836989937 8.76140970522883 12.16479389017405
Bi 11.24832698373152 13.173896942803774 13.461768229530003
Bi 9.314297781782214 9.592148452486311 12.10741774858255
