12
Energy = -40.92681335 eV
Bi 8.529951521693121 11.587245201622975 11.646374194566132
Bi 11.58486747830688 11.587245201622975 11.646374194566132
Bi 10.0574095 11.517539954209262 8.273725996564792
Bi 13.203508244868013 10.0574095 8.464959774060281
Bi 11.58486747830688 8.527573798377025 11.646374194566132
Bi 8.529951521693121 8.527573798377025 11.646374194566132
Bi 10.0574095 8.597279045790737 8.273725996564792
Bi 10.0574095 11.564410826997289 14.367621010432998
Bi 8.399363588264338 10.0574095 5.945401691345097
Bi 6.9113107551319874 10.0574095 8.464959774060281
Bi 11.715455411735663 10.0574095 5.945401691345097
Bi 10.0574095 8.550408173002712 14.367621010432998
