16
Energy = -56.94061229 eV
Bi 15.478934005828357 12.992473773276828 10.27413015716979
Bi 13.225481612865176 8.399860969071451 13.043244868229595
Bi 12.552605486721559 9.844962737917438 15.4767656141017
Bi 14.164859525110495 14.325910374745703 12.880858112878945
Bi 13.292723629121564 11.297529343993354 9.147548787977598
Bi 13.962889526110736 13.995013169654117 7.932343470714699
Bi 12.547079252056758 11.523421062990723 13.041186891650176
Bi 10.159685623869336 7.090622249389139 13.14071980689178
Bi 12.548202118110115 15.425828727109542 10.492570927254976
Bi 10.80236360942399 13.099744074871715 9.796939002418787
Bi 10.767209684916969 9.072748420175772 10.791247913044723
Bi 11.341859717807958 14.971372680932992 14.109486681510901
Bi 9.57135573728442 12.943674347431449 12.639440582372016
Bi 8.586901310507892 6.922042614551998 10.527888557730403
Bi 8.220306987730762 9.275659164635012 12.40648409751087
Bi 9.688427831286017 15.935153228802362 11.853432037584685
