14
Energy = -50.50383916 eV
Bi 16.128015907809605 11.089974280987583 10.03790327106128
Bi 15.004514584733812 13.246971764451956 8.216697527607671
Bi 14.525681830376055 10.323006606326112 7.561654189854479
Bi 13.686199439022102 10.415920622150898 11.781258278223167
Bi 13.34901138154899 13.419836217778728 12.128781654382111
Bi 12.161476592826684 13.498538688934921 9.329740547955506
Bi 11.928093732888504 10.44709909716002 9.2765790334445
Bi 10.172299140906095 8.85758378903333 13.226172572575367
Bi 10.697217055257973 13.695766897845042 13.6818256378052
Bi 10.937378463510122 11.077687121791358 15.103793960001616
Bi 8.648562670017448 10.174465823897423 10.91925870021292
Bi 8.729545712530276 13.121510088289195 11.494998280394837
Bi 8.131822688164723 10.01837281545664 15.190158816157526
Bi 6.656799176679078 11.448734437857759 12.893030034194105
