12
Energy = -43.095275 eV
Bi 12.61578837804602 10.400541289284726 11.522272910041936
Bi 12.565709641780579 8.384188152444063 9.25762927431642
Bi 11.409068053832838 13.036825654675825 10.589503445185565
Bi 10.232973242807551 9.705784646325654 13.244882795434508
Bi 9.5977581396124 12.711318426567198 13.061535792206266
Bi 11.356506439718945 9.69828116470366 6.793153332492344
Bi 9.450500424910485 7.27772582001265 6.826325479426685
Bi 8.418062705531085 13.03874309660102 10.320817886604944
Bi 8.379734344768618 10.081237028712493 6.90536388992264
Bi 10.13228858650912 6.663428211777817 9.764876163510355
Bi 8.251174108837208 8.334668471074215 11.429429374721556
Bi 7.095959483520368 10.416927464840036 9.617680570791553
