19
Energy = -68.40336244 eV
Bi 6.9159532215497475 10.95363599092831 12.86294493252407
Bi 7.386539722984505 11.619980476307568 9.89479965883866
Bi 8.255328036988084 12.778467849444606 14.918287434855657
Bi 8.677472499457991 8.542458614389746 13.459569217206921
Bi 9.705078791655268 10.22157635294602 15.856776228312553
Bi 9.074916416827836 14.130213651203322 9.580315685730922
Bi 9.136370930896787 9.248003758749135 9.301025069381321
Bi 10.869840540840432 9.960573708509104 11.821334432861953
Bi 11.05729582081768 13.876116340949382 14.443967073538195
Bi 10.736608101268118 10.35598981513208 7.022738980595717
Bi 11.326374958730664 13.246559846327608 7.727078980074305
Bi 12.280086024373064 11.113115094773343 14.460996131846612
Bi 11.292717831152386 14.908766359169999 11.569526176368484
Bi 13.056295660807292 8.039705916037363 10.906145935897785
Bi 12.48870185654227 12.409730225330128 10.39094608304186
Bi 13.216751248136454 8.779383961240088 7.958070745934437
Bi 15.737588671894 9.49929500982993 11.320518716363292
Bi 15.519625269586083 12.41117937583838 10.586824561590939
Bi 15.794518884425848 10.383619131130189 8.371523932128959
