11
Energy = -38.59866756 eV
Bi 12.153100979795996 10.360941680596 14.226564860074152
Bi 10.11315447637053 13.753535276762669 8.998359033057127
Bi 13.69012564101276 12.507170254301327 12.76494928375374
Bi 13.924803590230562 9.595095104171287 11.987722547769362
Bi 11.000109338165121 13.630782798842096 11.81658784138996
Bi 10.071255134274798 10.635574163410926 11.77394379832372
Bi 11.841729536541878 9.162173922222715 9.693457741371086
Bi 7.8619949900233195 11.638144863121383 9.606182104263686
Bi 10.043126416697456 10.962054113739555 7.682643830342991
Bi 9.622227212011003 7.519297245872715 10.994085660213628
Bi 8.126609690466971 8.523177037117248 8.694842017072071
