19
Energy = -68.33208976 eV
Bi 10.274563588915978 8.818268644575816 16.291477243794418
Bi 7.898216524315832 7.7078875350606975 14.695290472700167
Bi 10.204440875907206 11.320584403087462 14.464479208996625
Bi 12.484915932905084 9.367941576527189 14.304091070701809
Bi 7.981134286211487 10.115146083337573 12.758392503578712
Bi 14.357090207719125 11.975403417907362 12.235475673005546
Bi 11.867870300586437 7.1406627007583365 12.392612655993114
Bi 8.926429403013115 7.393497925260248 11.895338309784632
Bi 11.408045266224097 13.063542324759267 11.634326045058359
Bi 12.350753869650433 15.537766677169344 10.027960821835393
Bi 12.602273095593684 8.14234261742741 9.636656698919571
Bi 15.060681369915176 13.81002548105264 9.942575013141754
Bi 11.454133924889556 11.117457288670295 9.26562035887649
Bi 9.129188580973999 15.876784425030529 10.157372681870113
Bi 15.07997054828788 9.780046580694883 10.216970422233732
Bi 8.360110722754671 12.98658333681652 10.34555665046751
Bi 14.204276854673799 11.690766124840176 7.989461334072743
Bi 10.61297930571888 15.325561765338728 7.57010828014212
Bi 9.342810405849173 12.536966955208447 7.529030316717654
