16
Energy = -56.55188964 eV
Bi 14.868751968077138 12.388982855838767 14.40426212199164
Bi 14.69463439455029 9.540648688056791 13.568114588095506
Bi 12.809821123236025 14.01788603152869 8.521235711355132
Bi 14.224041658355628 11.002982155215134 10.750138945411106
Bi 13.658954045457188 13.799086666405815 11.675003125916597
Bi 13.361724353496575 11.221445257890677 7.69267648191979
Bi 12.010067841403487 12.142705125863554 15.521729996753862
Bi 11.827951636890916 9.215096782732322 14.571325395091831
Bi 10.971155762949133 13.950322008969977 13.320694181366989
Bi 10.432527576201533 8.092990993828792 9.544256752468698
Bi 11.267737855908878 10.095111275641173 11.664870226910379
Bi 10.375541342975163 12.722183495642513 9.945982311652305
Bi 10.394311880345388 10.504068521625456 7.761737043506923
Bi 8.078687634261723 12.89380965037752 13.331547351175379
Bi 7.318043976349481 12.886575581847211 10.39789756583742
Bi 8.00909825184976 10.316116429998361 11.757994295836719
