18
Energy = -63.46228879 eV
Bi 10.879140184738127 8.157975040759478 9.247402932106846
Bi 15.193172462822362 11.738604810197051 12.19175369555745
Bi 14.44238488970933 8.957403203465788 11.081044663574614
Bi 11.188282889972362 11.20720234603436 14.761149475549733
Bi 12.034895035544533 11.693616155595459 11.044375915506334
Bi 12.531133798609897 13.420661040610332 16.38506792189185
Bi 11.6506952569209 8.66190879777019 12.294710189986844
Bi 12.67272439888925 17.03489540572595 12.417222316729701
Bi 10.339387445642908 12.18342818768997 7.837280346755034
Bi 9.13896142602739 10.48838356526833 10.073667063165685
Bi 11.044804135067563 14.661744329342454 9.633970595666185
Bi 10.019497318119205 15.483300941940499 12.643644315330125
Bi 13.89972940828084 15.133152432548208 10.364857168450458
Bi 12.742967905989321 10.359499768991103 8.224522512226724
Bi 9.8070599720667 14.017781951554893 15.359937329044794
Bi 12.839108370382512 14.067915975236899 13.310107994704206
Bi 14.198488921816287 7.695805964002338 13.810109349860637
Bi 14.357427749657116 10.57807530912794 14.851964985385465
