14
Energy = -50.0567734 eV
Bi 8.361587498690788 9.238851682953547 11.717187657907006
Bi 12.032802349928282 10.319422823188987 11.593623458912464
Bi 7.7517413911707 6.634879112862831 13.244484983447022
Bi 9.9937506949036 6.73135190228035 11.227582640488633
Bi 6.059756705146805 8.453517945218996 9.823186013595139
Bi 7.244030395706657 5.701670323745169 10.388439413656856
Bi 11.525130115492777 9.078557683863547 8.570900404755262
Bi 9.491785855666025 11.368425721167362 8.775733632125316
Bi 13.3576644369832 12.605777634374245 10.054542576643648
Bi 10.68504844934605 12.909869408072124 11.393787961191082
Bi 12.123490807253688 11.775297432751488 7.32374054352205
Bi 8.047169604913176 11.10380475330378 6.005250330261131
Bi 6.715085823277473 8.505657388685902 6.851929670481659
Bi 9.640824674622435 8.602784596836257 6.0594797130128555
