14
Energy = -49.96418612 eV
Bi 9.098516457350772 9.972144003867722 8.538614017531618
Bi 12.831339001600442 8.904419464573543 6.870769510146901
Bi 5.707537902092314 8.217207347042583 8.193978983528533
Bi 11.497809708719378 11.528807765830374 7.630750379856086
Bi 6.44728477185515 11.069546201303023 7.409765848146397
Bi 10.82042763778275 6.649284561161889 6.473530392373633
Bi 7.882413078410661 6.311481192435188 7.266722807709037
Bi 8.870386361584849 11.868733943409447 10.909920958176977
Bi 12.795013283246394 9.760335391435586 9.755949177142375
Bi 5.8287454296888095 11.748274888813224 10.350365663716374
Bi 10.965335353855465 7.726965819880768 11.117356289348121
Bi 5.866946234754132 8.78284669366339 11.19611457838285
Bi 10.101248814458383 5.548752238244976 9.192551939641566
Bi 8.62881173201689 9.253016488337762 12.435425221716054
