12
Energy = -41.7126856 eV
Bi 13.53571566285916 12.59845035746129 8.635156593231871
Bi 14.486063187132737 9.783296327901214 9.62598403144283
Bi 12.629367478512226 10.162470912384238 7.27770394688293
Bi 11.926612141241106 11.007404857222959 10.82556448294628
Bi 12.504367307109272 7.02332678908592 10.234449281920764
Bi 11.693282579690948 9.959550685547804 13.776710197839634
Bi 8.610121662376708 14.831592485002835 11.532005785062585
Bi 10.426626553364672 7.76278062457082 12.32041004504369
Bi 9.242138802673647 12.349147696379157 13.19337848935787
Bi 8.1656915933423 12.086596787002625 10.376698153442524
Bi 6.352881244548027 13.122444937703536 12.549712818162787
Bi 10.312502655435788 8.83803742008421 9.27131921041398
