18
Energy = -63.61387502 eV
Bi 16.48390808195214 7.940174713439556 10.299083370429724
Bi 17.21255474462827 10.644294133771808 11.34375655870818
Bi 15.157605915769905 8.991330503709401 12.769963072578909
Bi 8.56320039298713 10.498118785026861 14.673710832299987
Bi 13.355001670926613 13.516845800168172 14.126101622286217
Bi 11.578348402615022 10.937225227882447 14.562036476907878
Bi 11.086967531525245 9.59977960619041 8.298054783093967
Bi 14.110792701883044 9.598052133269906 8.893531776805348
Bi 10.113908447099465 10.284845832488193 12.00333799205551
Bi 7.127738284011757 13.023789735136797 13.73378522172538
Bi 12.91299764725948 11.35330068269498 6.630487375429958
Bi 14.187959085127297 11.551154035217165 11.239242965162553
Bi 9.630441344815987 14.166153784652487 15.081069989133512
Bi 13.029355512194888 16.337460637781984 14.991354748837331
Bi 11.712980287672847 12.402524576985185 9.156816191261623
Bi 8.700180011762322 12.874585505438084 11.08915103559148
Bi 10.910789547215039 14.658417143552834 12.403924713383828
Bi 10.238206613207193 17.07538346196237 14.369813575459112
