15
Energy = -54.23270536 eV
Bi 11.400219779618421 6.709615664659853 13.669346787358482
Bi 11.976712511881948 8.245467115825726 11.131884404372066
Bi 8.4923334567616 6.9986053123174035 12.820713326539906
Bi 9.214893147152074 9.467375474829323 11.036214795507735
Bi 13.333136801957309 11.807230752797928 9.37395716919215
Bi 13.744914095064164 10.509295637963682 12.073042213617207
Bi 9.52477759761986 8.450084364788019 15.283509960176229
Bi 9.214672266553109 10.977740922828517 13.656830836107924
Bi 15.244220147287718 14.046992534693569 10.01170600750242
Bi 12.002515393125723 12.08787122170933 13.995733082461596
Bi 10.631928736405248 13.028771780202913 9.844057516674107
Bi 13.819769008583696 15.768053622895048 12.031844990679167
Bi 11.110684540157845 14.506132409015127 12.410243300046341
Bi 13.727581331672438 16.504282885039512 9.091959304650384
Bi 11.107532936085727 15.43837205036062 8.11484805504117
