10
Energy = -33.42741755 eV
Bi 12.356562236372918 8.207272213047835 8.484280758375217
Bi 9.703671454988838 10.040239338271924 7.808229193687473
Bi 13.286438673386291 10.172014441182855 10.857559789033598
Bi 11.369602616721044 12.11333878716344 9.44318132414797
Bi 7.470174824053232 11.682264088949465 9.31132014369609
Bi 9.359397877471922 7.885766406587622 9.928952862891013
Bi 10.703313385742533 9.295397193989523 12.305188434946746
Bi 12.768461970401228 12.772098990563679 12.604430347089298
Bi 9.723260099157025 12.170611536387952 11.979004828927382
Bi 7.064607842328773 9.559209539176603 11.190489869745022
