12
Energy = -41.30691992 eV
Bi 10.384105490786958 8.210131853895431 6.686969666042059
Bi 11.994594363512542 10.33786110162493 10.285820850084438
Bi 11.103769820065317 8.337249450768383 13.62384827194703
Bi 11.025734005696245 10.84432983410513 5.901313689166574
Bi 8.566390347073296 12.066338408903205 9.896736534132726
Bi 10.127386088049917 11.358842450413421 12.498301946896413
Bi 11.174232452569026 14.250996733635091 12.702652467066022
Bi 9.552890055803749 14.907310886433326 10.460662493001463
Bi 11.187299809381965 12.625072683519585 8.40570627299085
Bi 9.5926121708637 8.62030180695741 9.588239769079399
Bi 10.999362953670694 6.4296591016632085 11.229577340024433
Bi 8.864294442526731 6.584577552670798 13.292842970389755
