10
Energy = -33.69635253 eV
Bi 7.290496680121165 8.209881956856474 12.73838342048822
Bi 11.728971022159278 10.166012698012082 8.566241688534042
Bi 11.216019477113225 8.368627675453611 12.726774914797424
Bi 9.238617396261859 7.919519596191609 10.471923708143574
Bi 13.360227649614222 9.639859679418677 11.086707735704673
Bi 11.947618696864174 12.427653433370685 10.541467039818986
Bi 8.996818094375133 10.55642564440652 11.91811759189213
Bi 7.327178155696753 12.027436164499985 9.589972417680524
Bi 13.871925319755645 12.252193194836607 8.221060780365306
Bi 9.551045016234044 13.19965607824068 8.461772332309339
