26
Energy = -94.36861309 eV
Bi 17.796066282853783 12.578146628607675 11.74832892359904
Bi 17.387028218267503 17.003096824219835 9.61910269677166
Bi 17.968308531550505 14.076638411977786 9.132009373524829
Bi 16.215275741567332 14.509454031502187 13.492748163186395
Bi 15.263415913537798 11.274258222019315 10.69516552051729
Bi 15.056847313153773 16.44442781742844 11.485292911404956
Bi 15.156195312396868 15.16068712004381 8.746992640907283
Bi 8.660770850479038 10.024577821874061 10.024781839264248
Bi 12.203442585671176 8.779827592587681 11.928559162027302
Bi 10.712102178118942 10.756327589408352 7.968984697534478
Bi 13.759113266617257 12.696714344389884 13.125700656133768
Bi 15.085683157809283 9.27843101611834 12.874575899563967
Bi 11.182954435082248 11.47430882726151 10.88662344280063
Bi 10.068603916231087 13.648074129511206 7.355874225021144
Bi 10.615220182879717 9.402267747609573 14.472859669704775
Bi 14.92962470803739 11.20644673532871 15.56844741576687
Bi 7.0852851323857555 13.998076599810995 7.707863142719455
Bi 12.953343579341356 9.032285963667498 16.283957784552815
Bi 7.010969092218144 12.545491059554148 10.361838145901459
Bi 9.626189433664912 12.293817908588991 14.483250806121754
Bi 11.611788354560872 14.584642277402374 14.467126389084209
Bi 8.968970502158962 14.81172028195309 9.934164230443068
Bi 13.554450085670226 13.919604417818643 16.620719494085183
Bi 11.263304635836125 9.99471565083093 18.627076022873137
Bi 9.18403770708584 11.906970657818713 17.484064645001784
Bi 11.673575260126949 12.980102392060658 18.8133881126909
