22
Energy = -80.37650386 eV
Bi 11.31355660215103 17.370579426079978 16.450080777707
Bi 9.359468782558894 17.958593436093235 14.167652409438483
Bi 12.092751398935707 14.741229502643842 15.08174672809186
Bi 10.149141899111305 15.319685422360417 12.823814557779091
Bi 8.345066949551306 17.073404460274148 16.863814443556898
Bi 17.15398657520933 12.935013227999715 9.310254082426951
Bi 14.972868193174396 11.966341625680608 11.258010801902946
Bi 10.524151233252091 12.883518357976792 16.828387800140707
Bi 7.733433705898455 13.73029594804277 13.605817207424003
Bi 11.57299045789298 11.296621800181777 12.467701586094632
Bi 7.77225907100424 14.108717848369606 16.601022976776374
Bi 9.29680464536534 11.239373252048413 14.525176752353905
Bi 11.924075313974157 8.58612321713054 13.758609179174618
Bi 17.008235476635715 10.952326770305321 7.041455119139177
Bi 15.03844543157896 13.239540204160175 7.124315721633438
Bi 15.99728548494017 9.151283824787514 11.043290894510864
Bi 12.8816787708116 12.26389475669107 9.091989230880259
Bi 9.83420305436092 8.991096991800758 11.556070081647043
Bi 13.779199835411442 7.201203512963317 11.743670250755233
Bi 15.5295707694059 8.541294135170144 8.145952732369473
Bi 12.777320832258729 9.627788563409423 7.66342296119369
Bi 11.660908370270697 7.539476569582983 9.565146558756235
