28
Energy = -101.36288498 eV
Bi 9.231554219618577 8.88065139330054 10.426137679447423
Bi 6.723685722709704 9.367497803201765 8.77203137634834
Bi 7.545151079761879 11.95351394650905 7.194857764316035
Bi 8.695411622634953 9.445417831481228 5.4832821742623095
Bi 11.790945293441844 10.701641758386875 8.632114968671676
Bi 7.688950805996559 7.004517683369843 6.902774887790861
Bi 12.761228414671036 13.119806333365116 7.082163438366504
Bi 15.879656628887213 11.644317185527315 10.841901283232728
Bi 9.862434963989577 14.061022107795987 6.898215059598146
Bi 11.523246521893931 8.670361082986046 6.383106084209284
Bi 10.350413738610994 6.728699451182897 8.441593224245777
Bi 14.69016243909847 9.624629073915534 8.871457546969676
Bi 11.902404886039383 6.667714638067812 12.055772263190109
Bi 5.992345336216195 10.466730313835399 11.682266181855232
Bi 8.879592808704153 6.239497791243347 11.859372143446114
Bi 13.96576905299628 13.70552391601389 12.00363001017711
Bi 15.028110028509818 8.905850525267633 11.792951106812843
Bi 12.119807906229271 9.8122945842695 12.009227223320538
Bi 11.008081946523873 10.159224413148536 14.83696354184036
Bi 12.115260602710949 13.105321403866629 14.39645916107262
Bi 7.930111972846946 10.457082088616223 14.14404249005316
Bi 11.443905349124979 7.015645970409067 15.096945008203743
Bi 9.711695768960741 12.61112336840086 10.87611475243987
Bi 13.039061332960205 15.070600238494997 9.423552842296488
Bi 8.50466233346032 7.29211143674811 14.708826831469437
Bi 9.212572922471859 13.392826837026966 13.746501466106926
Bi 6.790940511805882 12.915008236688754 10.176729106908043
Bi 10.0009717891238 15.369504586880364 9.649146106419145
