28
Energy = -101.06739844 eV
Bi 2.922167362508378 14.545422453323239 0.8405549305585985
Bi 4.371469535831428 15.227288950388457 18.267568390945478
Bi 1.6125944328308262 17.2642436787698 0.695097877219153
Bi 20.043910894010406 14.801450833907902 20.03561651207639
Bi 2.0193330783710572 16.723630646641052 17.0164918273206
Bi 17.867928583487483 17.927114595441758 0.8578985631824945
Bi 19.62937354937951 16.18311583043861 2.6706567899179756
Bi 3.611700033333984 13.254296382149343 16.036495886218017
Bi 3.414703837592281 15.840793462098276 14.392406955866587
Bi 16.453593133185475 15.409522982243319 19.862147506925687
Bi 14.01064629462497 16.258379601694642 1.4880022608210286
Bi 15.296686263579018 18.91183107873943 2.2629101676068943
Bi 0.6399833175832222 14.038149273863676 16.481314115925027
Bi 0.5312556276114 15.005936144003838 13.585236056946275
Bi 12.325170795293424 17.889304045927933 19.6062245243603
Bi 14.87031019772207 19.54539306046934 19.31192613380562
Bi 14.015535858862737 2.4024983456230102 18.773959153518216
Bi 18.917474220304285 17.196114216746402 14.92466677647909
Bi 16.986315671494438 14.860718222524108 15.12407733381202
Bi 15.76527745470999 16.73915146285383 17.200618672049252
Bi 15.021637554437785 3.0720298261425256 15.994832481833646
Bi 12.738037410335313 16.340778980965762 17.01439213592612
Bi 12.022616631531502 3.1714499176700075 16.626477563079806
Bi 16.779000567214386 16.86144435358002 12.81119490760035
Bi 13.560146766125985 19.159653684985255 16.054203133981492
Bi 11.43637855623304 0.8424462772263597 14.6936702622112
Bi 14.101267492214676 1.5458935869274197 13.420752656312324
Bi 14.230588191587081 18.527282144588 13.191252918580004
