28
Energy = -100.81045319 eV
Bi 8.571785553345146 15.21732069720234 9.039432027384573
Bi 7.416549583912458 13.893457058598782 11.596369701930087
Bi 10.99179144981043 16.22408702588823 10.596980431184774
Bi 13.745975001556504 14.24306639199911 11.670248863477353
Bi 9.091418203550365 9.690640807228863 10.938079029925811
Bi 8.995726290569177 15.454299949434414 13.712162843242076
Bi 13.28064087672012 15.37052246803774 8.702971315488277
Bi 11.007601529416602 13.41348299066656 9.25853218313918
Bi 13.321192709829711 16.95524287827232 13.142824681992312
Bi 10.375698352238373 8.867907018007022 13.711407472821374
Bi 10.12856318760611 12.85892187297454 12.673189393241675
Bi 12.201602341210998 15.79045026282407 15.65882380533529
Bi 13.073899350757465 10.787083738996863 11.573938859501643
Bi 8.60215489319398 12.846577134455606 15.309140481192228
Bi 13.066007461171818 7.857981323534888 12.616305331338914
Bi 12.527584560036402 10.05169484579173 7.998536124863632
Bi 10.794365069022131 7.290804227682184 10.351603790323084
Bi 15.204647731881217 15.948852441206338 15.317882653118536
Bi 8.431619812544875 7.01815785194205 12.175858978557985
Bi 14.798369554054927 12.158553507262392 8.0412444459724
Bi 11.133811348665283 9.648524844516633 16.709546577867737
Bi 11.388942680612002 12.82121675551446 16.58251080166836
Bi 16.034537790816028 13.480524885631072 13.646346600330412
Bi 13.639057136711548 11.77762417031385 14.530836859885097
Bi 14.83834995387928 8.380210708836817 9.184889652967717
Bi 15.04375465455905 9.565764440165392 6.391233819855148
Bi 13.741890355629907 8.881175072176477 15.648034649650878
Bi 15.944052278061628 10.897444342203823 10.612658335108309
