24
Energy = -84.9798314 eV
Bi 14.136915630361944 0.5605461278407078 1.4733036208541088
Bi 13.255516729872658 17.393874533891736 19.19459788217653
Bi 13.115661225062516 19.12894959021536 16.66281863781137
Bi 17.783756826476573 1.6027019526723918 3.0150507664404818
Bi 15.482449353244544 17.455574453669225 15.575685578711628
Bi 16.23908893212397 18.190738607148813 19.106245902547492
Bi 14.408227868123138 13.435179954602612 14.501713641996204
Bi 15.50311339211821 1.661792346866187 17.43618122217018
Bi 17.003205563194314 0.7533448191056413 15.005244901803804
Bi 16.27572373155788 18.22669855380127 2.88960266736602
Bi 13.621860294033734 12.220519110507526 11.867457339858875
Bi 15.567636950108565 15.760993915119448 12.9911240927943
Bi 18.24759146069194 2.6415084806745277 0.21977048132600102
Bi 16.099720012593558 11.082792004420446 13.466758438481897
Bi 18.77329205662774 17.391372955134806 16.436336805484082
Bi 16.204562596138373 11.918486097684841 10.311450479106197
Bi 1.3331723354681533 1.424684422232871 1.9240898942972393
Bi 0.7342613748282776 0.7763832099213666 17.749635704503973
Bi 18.858629625623017 15.600793406959033 18.990650300908136
Bi 18.444460243851726 15.289271409353269 13.85689627274028
Bi 18.4119915500933 12.49724572505399 12.153539516846767
Bi 1.7168444798155427 18.034346548693545 0.4656803704274139
Bi 18.668585766539156 13.64631490976085 16.376100594315048
Bi 1.838786106781945 15.358929837243737 17.0088405361277
