24
Energy = -87.16802214 eV
Bi 13.870342699430351 10.360595160599724 17.47071094227516
Bi 11.514918081897138 13.974780905504645 17.933853100301384
Bi 11.28314121933879 11.438286195880297 16.32505176465302
Bi 15.2705215598264 9.211469468813565 15.022477777862024
Bi 16.095697176618977 11.891294491982814 16.125053999488085
Bi 8.98748787966437 15.200248956491427 16.784133721365343
Bi 13.857221764224482 15.49996165784044 16.64911485261803
Bi 13.104003662070747 9.703559218325795 12.969898113092832
Bi 12.134326925857266 12.497468735861549 13.643637146538405
Bi 10.169562502187958 17.95781051055143 16.78455081758473
Bi 14.749393139323377 13.843053862224727 14.274265294274953
Bi 16.945851544256133 12.280424259496467 11.480674239857679
Bi 17.509862835385626 9.329129748521515 11.442115926273663
Bi 20.74550901048165 14.547461520662193 8.628343476539728
Bi 18.048301414554434 10.991183255583925 8.958754796660441
Bi 14.800889920795328 10.310076495397219 10.510405671724369
Bi 12.533551844206123 17.643818602056943 14.963216031793824
Bi 20.94494422767561 11.72152868393925 9.662545876427387
Bi 9.03268792801774 14.520891125432732 13.855779441302227
Bi 20.119289131883388 14.08569503709243 11.349355308326146
Bi 8.330310692322778 19.16189060464857 14.698177508905976
Bi 11.356442305410729 16.074849100355955 12.689643307204738
Bi 7.1240054865665865 16.839864304749202 13.183486175604962
Bi 9.468416937076226 18.39617045843236 11.999325512681443
