29
Energy = -104.56824474 eV
Bi 10.157923650744246 11.72755589535204 6.294633638198296
Bi 8.03557955902549 6.815851745377868 7.679520364534919
Bi 5.418680855962674 13.12542228912147 8.954945569056768
Bi 12.123936499058171 14.803250117382241 9.589332920559096
Bi 11.026696566793728 5.410397612985709 8.515607864802869
Bi 11.647277923697645 9.85374760245271 9.181011142004179
Bi 6.613628160353418 14.763217659360809 11.24012871054013
Bi 5.374757728424294 8.451432608633942 8.58918881171249
Bi 7.752764404957734 14.998810686489957 8.443520952222217
Bi 9.108920890522748 13.543401815315512 12.450771084249778
Bi 7.9603063450894815 6.384929421523328 10.725540687161557
Bi 13.136662958588532 7.3153187297914695 10.022352761641956
Bi 12.433971480367273 6.8632371457740895 12.990444469256937
Bi 5.764913912283298 8.471737489111513 11.564356530058078
Bi 7.829148165067231 11.322098187128425 13.869112294252448
Bi 15.593812276778918 12.45227711538812 10.38029578298677
Bi 7.2459508524191385 10.807282864477841 8.416055289563843
Bi 9.74310762053889 8.02555867487348 13.895835527862193
Bi 14.330478443663639 9.419631026164677 13.343502670288462
Bi 9.80302612375501 12.847581335844005 9.27645748503061
Bi 13.443783795049006 13.712585200240312 12.179444618241813
Bi 11.95104483117995 11.085927331866788 12.455192147366017
Bi 15.579721365663127 9.421624047145851 10.654807887212112
Bi 10.306860614452544 8.651049162273758 6.718653614310209
Bi 10.588109181291989 4.728437924376713 11.27483024916931
Bi 8.725366171960673 9.356572434991355 11.242719717289702
Bi 10.521444906551219 10.69454506453941 15.135306974895498
Bi 13.092620594297074 11.011151186082346 6.72350509558921
Bi 14.284007848300224 13.550016108865309 7.825938338206889
