28
Energy = -100.63199083 eV
Bi 12.081261971381968 15.876422747811668 18.16832951733423
Bi 14.409141433514367 14.13117348126436 9.225410660607752
Bi 9.111868878848853 17.558146833476517 10.717079807012441
Bi 11.626422496916254 13.485004909281257 8.041125448288874
Bi 10.66584497822051 14.809969318145594 10.646590168923565
Bi 16.848444846891336 10.896829515901837 16.608376234436047
Bi 18.85323023630236 12.503110228944571 13.337479742560369
Bi 12.869244888348634 12.971347969033314 17.603523723166653
Bi 18.43826577220878 13.452850798415799 17.183669264103578
Bi 17.624310760542386 15.703526316442328 15.389897845930147
Bi 15.817565125750605 14.730288781148973 18.425238136358573
Bi 17.17576465462642 14.542952433552387 11.789006778809904
Bi 14.60669193737103 16.468869560366898 16.17570942688348
Bi 16.488341957434677 12.01866672019453 10.23900412678545
Bi 12.53238240389789 10.373208473713431 14.63611897506666
Bi 11.259327123235163 15.064907851912178 14.686445581568243
Bi 10.139900159061359 12.261263027105771 14.160680408933608
Bi 11.627589599487026 18.395114143459796 11.960401543557692
Bi 13.382014871626039 12.383408418858929 11.585305763157677
Bi 10.623027162357127 11.009543303524248 16.91640919497404
Bi 16.745985258049433 10.305478856834137 13.585244973048615
Bi 13.299152450996042 14.33080524169137 20.360315516847287
Bi 9.371703281746953 17.33856420190898 13.711104710649728
Bi 14.895016380330118 12.411371608320158 14.827345974682611
Bi 13.229148090607117 15.496537565413554 12.30538104704061
Bi 16.978888995658455 17.50364571395487 17.80256566424377
Bi 10.709546570395101 11.72500194281546 10.359078513813971
Bi 19.380511424548935 13.042583746862183 10.343754961569362
