26
Energy = -94.24149716 eV
Bi 14.477484790087374 8.774660105310618 13.292834898692462
Bi 9.390381453621497 9.165122841497794 9.605752954994806
Bi 13.120342405951197 10.805445311275792 15.143084599482762
Bi 10.535240720306254 18.134092399583974 15.948429158237733
Bi 17.035858383394217 10.247846066965542 12.64864947195422
Bi 13.963328781243098 8.634732327531431 9.517867254048493
Bi 10.548892273456849 13.194455613680661 16.509170766883724
Bi 7.804126225703941 16.888945892078834 15.773264669683194
Bi 10.849269657846865 11.05630401673701 7.634077093258709
Bi 9.807453238765074 15.844178921207787 17.79984199435756
Bi 11.328237469637324 14.074066732436961 13.745843521404737
Bi 7.756446669191408 11.451144695570447 8.490751540340478
Bi 9.716443663967004 16.636568410177848 13.433548003349669
Bi 10.40732052573407 9.978305042019848 12.306457469651333
Bi 15.213666959378207 12.972344672813668 15.451260646409267
Bi 13.150556433312028 10.962255662018572 11.220164731940423
Bi 8.9856216578454 13.730645572716039 9.912241145046714
Bi 12.0815442139997 13.292858689141122 9.255553306736587
Bi 16.93050538222684 9.223533285179963 9.732653001118855
Bi 8.89596920415113 12.540675624542375 12.685854636182993
Bi 14.413894608486368 12.47239416576587 7.211461162910835
Bi 16.83291558327763 12.193763590497412 9.079332346788899
Bi 13.325800735029508 13.766651955208427 17.713061607115222
Bi 14.701504419190742 11.052503254268796 17.736653800493883
Bi 13.609352143385042 9.703280922924563 6.666186418355183
Bi 15.594541041585204 12.789408939183735 11.776200527591559
