21
Energy = -75.02930109 eV
Bi 1.0441013577680993 13.549044443371198 18.76208065916758
Bi 0.952025400113887 15.920776169852374 0.36385045908548513
Bi 19.20151985693593 12.423777442458691 0.25185604745023227
Bi 1.2395752138741367 18.432735709437065 18.966177335905783
Bi 16.78148024380605 14.21172768933282 20.18061872598578
Bi 1.7576161643517656 17.307598843265108 16.250779053999608
Bi 19.653745745437053 15.2588804888622 16.76859162842737
Bi 16.70736147020779 11.351709543079597 19.168188176988398
Bi 18.801907795758414 16.987635830011595 19.11978486780631
Bi 16.823147205903677 13.722994106301215 17.147118886248307
Bi 17.348883070598983 17.481864844453234 15.510950394702204
Bi 18.281113300700884 20.008007295570685 16.92052324298314
Bi 20.231988608239373 19.133178636628344 14.783843576153211
Bi 15.373714431525492 16.420271496876108 17.606619688766234
Bi 13.530051156190778 18.035276978260345 15.489951566744999
Bi 15.363703809359386 19.24645880926715 13.343577686560787
Bi 16.97696933219027 1.2210060154044697 14.586270252608164
Bi 13.397116718453349 20.253943606674014 17.527339592009245
Bi 11.203206096639349 20.181521046376755 15.382126824164565
Bi 14.481001429217265 2.3040737142508845 15.928658529030576
Bi 13.09023338609888 1.2059000149873484 13.458663619708336
