29
Energy = -105.65114443 eV
Bi 17.924319861827787 10.333560917330338 10.838945312879881
Bi 17.767896854500286 12.220337900635526 13.277504672128
Bi 15.954042062442083 10.698081130345773 15.133217453074717
Bi 15.991188930528619 8.103254710697108 11.57487423315504
Bi 14.17443702697172 12.793383367873647 16.340731734181773
Bi 15.852798228910027 11.439402254935052 8.869686160153044
Bi 15.90666731226801 14.22902803771342 12.027202511929428
Bi 14.95745275390065 8.511328743921657 8.730975846763613
Bi 14.32268289601417 15.200906633302747 14.423573957134119
Bi 13.992851627918496 9.972971412017825 12.888548813186945
Bi 13.786388629162293 12.367418630580477 10.91111503429646
Bi 11.653406146972236 11.770031105112624 14.817977754578328
Bi 12.103906904294377 9.38034783492875 9.571504408193158
Bi 11.796421941546825 7.794970956551183 12.387031720319083
Bi 9.391242868083323 9.397484445745306 12.914245571808129
Bi 11.71465403988707 14.6550595346641 12.829447381023456
Bi 9.500978840828568 9.815660361216368 15.881573969513186
Bi 11.06679603426694 11.002671423399576 6.885691115442833
Bi 10.060357265010609 12.079866875582724 11.035673967108181
Bi 9.943060539170496 8.335191701489295 7.729095211539832
Bi 11.701362600941707 16.566571430187373 10.430097893948938
Bi 9.874471994715996 13.69335086885338 16.432378277723355
Bi 10.13322947005969 14.447646751196972 8.905647455689664
Bi 7.356108677439471 12.702876569631426 12.395640850438772
Bi 9.950608853434067 16.207535843544452 14.700758335392115
Bi 8.563082414625251 10.948504964188997 8.523712477122968
Bi 7.500377252928683 12.099305796243035 15.400518152597252
Bi 7.519491874323552 15.666976239838002 12.966115830262579
Bi 8.67950546430924 16.706062925553958 10.316303265696726
