23
Energy = -82.64218156 eV
Bi 18.300821530129898 1.0998096327833236 2.018399820047313
Bi 3.3500114769398968 14.762688133492116 14.09130151989024
Bi 2.52153921815188 17.634121040904407 14.549789307800575
Bi 2.045406874655448 16.4245122741097 11.81877233958772
Bi 17.610580247658334 16.553368055856797 17.213028105577315
Bi 1.6287998486288193 0.15923643695307782 17.867794560571014
Bi 16.877217224875093 3.180166976917037 0.2524061187096328
Bi 1.216829165996009 12.82292935110415 15.058885180222637
Bi 17.93167789995511 14.209147669143528 12.834616766776833
Bi 15.42835015774874 13.53764574835903 16.26691678079627
Bi 18.183474970060463 1.8953238559221808 16.09993246541932
Bi 18.234295259658428 13.632801309204218 17.677591642621227
Bi 15.17659238107448 1.4735698865048845 16.708597945119955
Bi 14.835354434138143 14.945252456542015 12.571518924476813
Bi 16.572585761744538 16.875528525897426 1.7848112862179641
Bi 17.912864390178967 17.123318523265365 13.64318702792191
Bi 14.15512781784398 0.09522871758061154 0.9162100790602372
Bi 13.90582659807385 13.103087460150528 0.5833150601238832
Bi 13.381991289832605 12.623898545436385 13.842205052642175
Bi 12.675145134324337 15.73270801469634 1.4180834952385455
Bi 14.549247130942277 16.345786590270798 15.319234747115914
Bi 11.190740962781529 13.95224178892138 17.807103072938467
Bi 11.82349889192999 14.95089344117935 14.979586642763575
