26
Energy = -93.16721442 eV
Bi 12.103058295906802 9.947987272474641 14.79767147479019
Bi 13.542325723983227 9.958427245810787 17.47407397683493
Bi 14.66860157574444 11.580809336220025 15.065259096665228
Bi 10.70048270991572 12.26850031067909 12.223589790461844
Bi 12.607263376117926 7.857182510597524 12.503410328634416
Bi 11.564444149458902 12.25710918447296 17.807176479879907
Bi 13.669331479053573 14.07940542183626 16.508064490177034
Bi 9.72069273259563 12.630793956928938 15.226138039047457
Bi 9.727475062350612 8.981765440809822 12.591638980721969
Bi 16.96110390528184 13.082594735956105 12.07714448374955
Bi 11.032556519722425 15.366120109166832 15.654650079546938
Bi 14.98563215077407 8.853281471848007 10.841445888221122
Bi 14.179528212897454 11.738754804216372 11.468772581315605
Bi 11.414718332926155 16.90441951779429 13.025257380602811
Bi 16.060295945085972 15.710975083898783 10.920344680688526
Bi 8.163064987659256 12.093531056885201 10.328927963781931
Bi 11.401052829866893 10.551761517837289 9.26762754787579
Bi 16.314440823355188 15.442842905956477 13.93265956579876
Bi 7.562580110890768 8.803217654490563 10.602158546271855
Bi 14.636391741711027 12.534702136567914 8.552370192676895
Bi 14.038555763187 9.566240404460142 8.00711229074917
Bi 9.326509215857595 15.098231000932172 11.793140969862236
Bi 8.678154235180969 10.014438801975288 8.093852742707561
Bi 11.735441962864291 13.028822880225107 7.5787287162448544
Bi 13.631840232029234 14.862834321586874 12.64005517074103
Bi 9.370354619468145 14.581147610256739 8.81462523583675
