20
Energy = -71.41316259 eV
Bi 10.974708832049503 14.285365119557381 18.790433788444766
Bi 10.14714783805995 15.369098566254037 16.057832112906084
Bi 15.313568245776592 14.671370110900764 13.332282922352912
Bi 12.363990739468255 9.90309174870168 9.387034966514895
Bi 12.865690930356836 12.687056657442646 12.59857283722637
Bi 13.054389460693892 15.028166825023265 16.72151550623298
Bi 10.588686768711751 14.078897286310234 8.32527500360827
Bi 13.125989848062767 14.618530926624803 10.02520691841581
Bi 11.328774785490182 15.611454187514786 12.66579520742929
Bi 15.72664759163883 16.196942731482523 10.801171967911955
Bi 15.141683402959545 8.008296404073988 15.325576390842496
Bi 9.067612215031989 15.145677445518675 10.69137340260515
Bi 13.248808068104568 8.168341698161647 11.73992623540935
Bi 11.309462734507864 12.590271094223429 16.299784062581768
Bi 15.819470165127258 9.51847841242264 12.704310812588497
Bi 12.359933913061903 8.952517562664022 14.604957329860602
Bi 14.504693676710918 11.802739896755906 10.111505166486207
Bi 14.595738468686111 10.985034470673243 15.140111601253087
Bi 10.305771836574488 12.210267556346437 10.61226872973451
Bi 13.957500272231409 17.32893548348981 12.930929396078687
