25
Energy = -90.27480761 eV
Bi 16.196145449126753 10.674575138165045 10.324913957897536
Bi 16.385824239472303 14.194425733383548 13.456109830254718
Bi 13.507092115568662 10.93665714343756 13.66754904695448
Bi 8.90219592627853 10.726633303875438 14.276829448412848
Bi 12.031193054654647 9.118781598075389 8.592244723535176
Bi 10.734778295330353 10.667602592575887 10.952207975579679
Bi 16.502474299440877 11.130087381115567 13.335199105031975
Bi 10.544823481227914 14.206496497766357 9.696898665265511
Bi 10.308255515860173 8.323653260729861 12.781585008965338
Bi 10.668077380768873 11.950467318861094 16.856558833598548
Bi 14.47482069554856 15.148112213878623 11.251376652011851
Bi 13.674496596842275 12.348376813422616 10.23660102265396
Bi 7.715856319090167 13.936857543845345 10.83816433265851
Bi 10.33431339483333 15.356623867324839 6.912929229634826
Bi 13.64808076753996 11.51853234227564 16.653894450363808
Bi 12.492982189862872 14.109736134822498 13.366491304652904
Bi 9.325728244141898 13.703715537773302 13.545910261378092
Bi 13.289704880552438 11.600543538986328 7.287036222701322
Bi 7.692637190051018 10.974714697624814 11.279102216558266
Bi 12.728900294252938 16.169500144080942 15.567153987128853
Bi 10.142399653549111 14.822359787312372 16.466016060439113
Bi 10.329890869755555 12.386136300214831 7.252757209478757
Bi 14.973733273755775 14.252215069366361 16.24884149695898
Bi 14.392078502139181 8.194641254294773 10.352547180965392
Bi 13.291868262601767 7.9261013813889365 13.227064989666998
