20
Energy = -71.3338079 eV
Bi 10.238649500120916 15.804180053180488 14.190157767545003
Bi 11.508291617615194 11.867238365919077 9.731098579167611
Bi 14.535914797917723 11.17825351935002 17.44584911315486
Bi 14.939719002440915 15.060855974086016 9.25943070074324
Bi 12.928071145681978 14.180467549721557 11.51766221001334
Bi 12.386082191387045 17.26199767954597 12.649325060814158
Bi 14.2722905579549 12.384809757640674 14.637867944837081
Bi 8.758047376073717 11.96248420045973 10.962264765574616
Bi 13.980089031357961 9.389717304771938 14.98807855304668
Bi 9.86732187361204 14.92750325988122 11.287004094614854
Bi 10.94559313913994 9.073603564132751 14.617540737861981
Bi 12.045956819258505 9.232197614371684 11.27793064226146
Bi 14.871213201094891 8.685390589705191 11.584135419453542
Bi 15.923416190569277 12.492080352281372 7.956135266435764
Bi 14.955065717825775 11.593296800467616 10.682497230220822
Bi 10.63420383049086 11.945198328963825 13.424307710616555
Bi 12.251708830056309 13.052591752049906 16.82903602417468
Bi 17.32392936288787 13.595038158440897 10.379808784672637
Bi 9.549821425424168 17.948692036900777 12.160517879222846
Bi 9.838319584375355 11.30152045269468 16.321712334063555
