27
Energy = -98.01919825 eV
Bi 11.588266550906596 7.619808954489811 12.031069973417967
Bi 11.135096769240164 8.15739954853378 9.033286596349235
Bi 12.63734890349747 10.36441070990632 12.977103699412137
Bi 14.21914465338615 8.867753317801624 15.098093249532791
Bi 16.35579916275777 8.714270544008988 12.966515650235085
Bi 11.184224373613468 11.12816117624686 9.846859963088571
Bi 14.96910427051583 11.404068310350379 16.600745720010146
Bi 8.525728204155731 7.71179572556109 12.48214173822513
Bi 8.10313437552097 8.250660692738707 9.467432994534665
Bi 18.872417421545993 9.973854841665007 14.0763165297542
Bi 10.24556511995405 10.578165033271128 14.813511671389143
Bi 17.050392828506126 11.586222245270722 12.265159807304775
Bi 8.15927850389908 11.31668137567798 9.991946176236684
Bi 17.42566329490051 12.403775410818472 15.15732778114004
Bi 7.8435830372284 10.638003416280783 12.967139006343663
Bi 10.84355937362417 13.288479202838595 16.188205476406736
Bi 12.071736415247043 12.658534291277965 7.345343564536145
Bi 13.67402392520931 13.810488061917424 15.303052063898312
Bi 13.443092264418901 13.98149638295539 12.012854854160315
Bi 10.416495401293734 13.81207243880145 11.787273853358592
Bi 14.119692627142102 14.281746746315958 8.885786610366443
Bi 9.510557059286496 15.240762082294337 14.28303582353092
Bi 11.701664112015973 15.649155145654937 7.741270701893574
Bi 13.860535141482288 16.908305940548242 12.62160264209747
Bi 9.820969335016693 16.190312187256545 10.061586221043063
Bi 11.44869823079796 17.56765496032349 14.339226073401123
Bi 11.512997287675878 18.338578696661823 11.394300667109722
