26
Energy = -94.72772687 eV
Bi 6.844561527225206 11.547423804434123 11.919445407144773
Bi 8.367893539205715 12.152932969082824 8.138441031391057
Bi 7.281627771548723 14.736162403913921 9.27283482928457
Bi 7.509086813002371 10.894563485332158 14.810168140749173
Bi 7.263995120029689 14.530361664472851 12.33707974499914
Bi 9.721783591079667 11.483959486817628 10.889191927321018
Bi 9.696472025067 14.860365957634201 14.204397872488645
Bi 9.94304977840752 14.748006915199635 7.834230951805989
Bi 9.029135059349615 8.266086486550053 14.421003815594911
Bi 10.314195330205063 11.829030122950707 14.0780230359083
Bi 10.025905155129246 8.48378541576285 11.515222103577067
Bi 11.667205834428218 16.160522905988003 12.281622425364866
Bi 10.981655313658539 9.72685482861926 16.25869336593608
Bi 11.965205014039622 14.15760481139133 10.029275472180135
Bi 14.13812634198152 14.812074409793127 13.42054844084345
Bi 14.400167405527124 11.521866821403513 9.792268645759739
Bi 13.43470994767542 11.94749955350959 12.609264054215794
Bi 14.132494255230737 15.934960637026066 8.769404292336036
Bi 13.59192797297076 8.484453535082116 15.293761206097312
Bi 12.593153936988097 7.343846505121728 12.686228109352216
Bi 16.66630073506234 9.517771608777755 10.0226148222701
Bi 15.309690797198803 7.130386746234442 11.322352993250412
Bi 15.925831381509502 15.925443325021018 11.224176987602466
Bi 16.291168157483057 13.80215858002551 9.119492729531574
Bi 15.424137498597679 10.796670862438921 14.564855229838404
Bi 17.165711570183582 8.92283178140803 12.939253110911428
