27
Energy = -69.07567473 eV
Bi 13.429992903968659 14.141776278352275 16.98051122270561
Bi 11.94606503048035 9.851165796335964 14.045199893460268
Bi 10.672371713738073 8.104578975359502 12.407921080349363
Bi 13.516743201067316 8.91479447105882 11.998322601098323
Bi 9.101224403869422 10.399347394998316 12.84397985022516
Bi 14.481477890511627 15.797695052256474 14.840119680151181
Bi 14.685016030844356 10.807157820405207 13.281455927930121
Bi 15.271438458970907 12.965732909566825 15.056046121751361
Bi 12.83037386233196 11.882133435712452 15.376066532965032
Bi 10.432553264617368 12.30267212086485 14.181427563194989
Bi 13.474331620965255 10.551855304565919 9.619660479466495
Bi 11.933870734635732 8.21949056572511 9.895523001791684
Bi 12.689055364374632 12.418207107119592 12.388375667288228
Bi 11.197359740159053 10.584522727085172 11.212861308739862
Bi 16.99017229267308 12.219548738858098 12.971152414911844
Bi 15.204166376423077 12.131641840916803 10.869205626910528
Bi 12.25317869081934 14.352225262815084 14.392322313566341
Bi 7.750177486501562 12.767959714017413 13.071645215936188
Bi 14.155890387344773 12.713502229653164 8.085737102126714
Bi 11.704425197457885 12.765175217233992 9.460575044947275
Bi 13.497716859094345 16.38950316199488 12.212769904261734
Bi 9.676525042630447 12.751158776645788 11.10318805887631
Bi 14.881058910716494 14.12531412889395 12.662021371267574
Bi 9.48939823308358 14.741300849947887 13.475227776033202
Bi 11.44245144386743 14.751205063887738 11.539286770763074
Bi 11.217498377079622 16.78833290294564 13.662461658814518
Bi 13.878322642958032 14.364858313967364 10.169791971651463
