21
Energy = -75.24067678 eV
Bi 11.081181041165447 17.379763669864353 13.40193731185796
Bi 12.233042735367377 11.789774952510427 8.909813807931183
Bi 10.892690899609898 13.931088120551532 14.658352648952029
Bi 12.355928882700018 17.261075562068168 16.16033296092371
Bi 9.408717471588863 11.513541520420002 7.762693290209593
Bi 14.765985572330452 15.946892612274805 14.84096385481184
Bi 11.586439474293364 9.494407125450968 7.0602473532044545
Bi 17.60330186647334 9.782854236223821 13.117784550016856
Bi 16.776717720841965 11.939872693954145 11.224591655127695
Bi 12.755836860684505 14.977905653853249 12.425482016000318
Bi 16.808006463211246 12.489535612941744 14.2735893360801
Bi 9.77777838956572 14.19124540010622 11.03692675118619
Bi 14.98790587064858 9.50362841216184 11.532595914155714
Bi 13.321870616464365 14.284645429427572 16.807275628962255
Bi 14.212682945042486 11.510630803684307 15.455642567991047
Bi 10.369553699827097 10.905558077973886 14.127503227265905
Bi 8.516796241368876 9.691515374839591 10.034242108312235
Bi 13.001891257753185 11.582768367792701 12.704283160434594
Bi 8.551700933330306 15.551367544384773 13.395775634801149
Bi 11.515009769125953 9.083190149219948 10.104126865250963
Bi 8.234540371825835 11.848018109779668 12.207784797605925
