23
Energy = -83.39548295 eV
Bi 17.851574500311855 10.214621110464186 12.687192901739479
Bi 14.381270078933483 8.924695517098261 9.611428986729624
Bi 16.765321499115206 10.828704347389193 15.451111756199412
Bi 18.0339358422285 13.019011139488105 13.771652407601767
Bi 12.849907873220234 10.639117064362221 7.688100483045561
Bi 15.08257117346217 11.211753869733249 11.723363324579667
Bi 12.827114144890992 12.942732747651347 9.777768703390981
Bi 13.880268366139656 10.329532856437243 14.411770267677069
Bi 11.39062716754386 8.885122942671922 9.689042653256474
Bi 15.315117068013587 14.22636564042375 12.83606396952614
Bi 14.938727773745217 15.206806425482316 9.995146172642668
Bi 10.990470594000842 10.917544514085977 12.0312577803791
Bi 12.626218374418938 16.65552930353645 11.370581187401653
Bi 10.962682882569704 15.366904998538567 9.189163940188493
Bi 11.797082730253855 14.002589480370736 12.939238317748238
Bi 12.66335697575556 12.8372722997245 15.655245266208043
Bi 9.318040331521981 9.369730906948739 14.101740085404234
Bi 8.363146525063463 11.698677965471598 10.67343372560696
Bi 8.358941389421725 14.729863308935055 10.721511427512473
Bi 10.002822286233815 11.44042245528805 16.250214516628482
Bi 9.186225145217623 15.45841106936575 13.538517558301905
Bi 6.90362185646357 11.132660004092546 13.286477376202527
Bi 7.830197827015021 13.341660763834462 15.210247845815141
