23
Energy = -83.31013931 eV
Bi 10.162566586031426 15.578792195981997 8.947468790756908
Bi 10.137823571360892 13.195200635038459 7.052613112434163
Bi 9.855756594541443 10.443825720658358 8.35085226748517
Bi 10.025451386564304 13.651889504662343 11.273077310060398
Bi 12.790532368330672 14.381140115443975 7.916600930419232
Bi 7.0874261010509585 12.908646588420634 11.330795270098081
Bi 7.857167560541933 10.07616882977038 10.655047750143908
Bi 12.705356496516936 10.169450147509211 9.313041513418296
Bi 13.393888664686052 12.857762138209376 10.506905918731833
Bi 12.395946973802358 8.64678644040515 11.921088309036756
Bi 7.425671191567209 13.093361539330951 14.358503903215055
Bi 9.545532531749052 9.02951999822389 12.946104550790645
Bi 9.625347807022928 15.19632319820927 13.911914785038356
Bi 16.259935996795008 12.033462845243312 9.618109202172404
Bi 15.324480899221136 13.867629498797932 13.611358627505929
Bi 11.80363646274354 13.015392064217082 14.23401114482714
Bi 9.603764882224175 11.101855557522091 15.148533722178373
Bi 14.258830646892092 10.754034792389644 13.299812175051429
Bi 17.75606186337445 12.73297763167763 12.164815781072301
Bi 16.759473168159644 9.902516439550208 11.729860038670536
Bi 15.897572914658676 12.906536161404699 16.450746782407077
Bi 12.943457990226763 12.62263571104544 17.094842807659127
Bi 14.566124773209832 10.165984511750521 16.295859708357856
