21
Energy = -76.19420186 eV
Bi 6.271857198561555 16.52344794843977 13.334520316486072
Bi 8.214787869272282 15.01663725636053 11.542737201687746
Bi 8.624469492690206 17.64062029253138 15.057322544581506
Bi 10.174449335503308 17.09445772873597 12.525891909100633
Bi 7.0949999398568435 13.673927721157176 14.006934126867417
Bi 8.529194125481613 14.905677577348776 16.367176500097425
Bi 12.458259211191242 15.398382774587569 13.6566120660533
Bi 15.141466030810319 12.53402669624124 13.031608834272307
Bi 19.714546877214666 11.26324522998453 11.216236073061951
Bi 17.18517900976243 10.286023913989428 12.648229209181697
Bi 16.96753945971212 14.7434185887421 12.1676163413221
Bi 12.446644100898041 16.590712783817892 16.44806137421237
Bi 21.17514729135059 13.321216573078338 12.866455869765606
Bi 21.219173397835416 10.457125460415376 13.774940299384706
Bi 15.256849643949256 12.74986599662907 16.0484310945307
Bi 11.356179354911198 13.813253900858482 16.151260721806825
Bi 18.59567282059071 10.144380535670418 15.316008983151933
Bi 15.394864146628768 16.846077565938717 13.660703941779506
Bi 19.046390199605558 14.895128182054512 14.343541136998807
Bi 15.432758853049755 15.758997184461657 16.48828911434442
Bi 18.263477340942487 12.905450971424376 16.458320937601396
