24
Energy = -87.75748536 eV
Bi 6.686478104846544 14.440540853974326 13.639071330151644
Bi 7.072694525128698 15.370746949304769 10.800827281308848
Bi 7.251848150559019 12.392768225080369 11.460423548224762
Bi 9.294943695081466 14.809208297398152 15.152889289454913
Bi 10.611891922042574 16.762083979897625 13.251111577778708
Bi 10.130813652699699 12.079497190655303 14.260238016908216
Bi 10.125277153514045 15.452155989277966 10.614583494788457
Bi 10.334378657663372 12.489600237918598 11.280863331971725
Bi 13.582252350157898 16.033289795475284 13.190035246113382
Bi 13.05434588775237 13.992259955463233 8.810316624752392
Bi 16.544118157404483 13.82468458290844 10.590304950245912
Bi 13.728325258622164 13.317238935336558 11.775469728608774
Bi 12.713468529351067 12.158801451977672 15.9434837772746
Bi 13.168523470782409 15.148928332438917 16.070763512123083
Bi 15.574855883063687 15.615233029053273 8.308628577817522
Bi 16.759192868887638 13.535356587477931 14.122905079000352
Bi 16.148346864004207 14.980810879774243 16.675291502229136
Bi 15.639102055539299 12.659930570446534 7.884856656345172
Bi 15.013594388192514 11.063587626844123 14.291775424725476
Bi 19.447781597602596 12.471972295330515 15.05893093024132
Bi 16.264587626001106 12.666893179190243 18.59058806769289
Bi 15.888436479925463 10.083659036367594 17.018396433677747
Bi 19.273921557951383 12.46533210924766 18.092986172858083
Bi 18.88256335269025 9.87898983012753 16.502301215701348
