28
Energy = -102.04901353 eV
Bi 13.385446891511403 16.090427153346088 10.797551357087078
Bi 13.761543578492505 13.42163706437287 16.03237960166324
Bi 11.186975689365667 14.961026906556146 16.42250266217154
Bi 16.051633672065478 12.602797566507023 12.088042606920947
Bi 15.455675626734303 14.971743005806532 8.927299963062849
Bi 12.817018194207312 15.872034177461257 7.791584668421816
Bi 9.841611822062186 15.283262758152432 13.700573906971574
Bi 13.626087556397755 11.564306797711318 13.540636617410273
Bi 11.417680457772612 12.120724228070417 17.491504058782265
Bi 11.725985383673155 13.715184399850823 11.854863195745695
Bi 17.111697119689996 9.69991988271655 12.589530044518314
Bi 9.614525253146967 14.767180272279528 9.770300616581224
Bi 15.521551657817259 11.838854317759644 9.222069789988623
Bi 16.26878378719233 8.522127655533104 9.979120932906183
Bi 10.311416591633888 11.3111070448406 14.790338312368391
Bi 7.135108221717926 13.860116164057175 13.391895138202981
Bi 11.056187640168 13.39748397776793 7.490916561480016
Bi 12.496214229850134 11.478481187182394 9.422998604927207
Bi 7.28619126386847 11.24327138057868 14.988317161891645
Bi 14.90167093841138 7.593257534202883 12.435203611322212
Bi 7.228420946672736 12.97564583227752 10.454580589449494
Bi 12.181226814780835 8.972082108551545 11.953843655378838
Bi 9.302442456798383 10.907568729179927 11.156282730181262
Bi 10.325594614087088 8.256923810449392 14.34975442103619
Bi 7.709659984064994 8.996395628568006 12.9265174034856
Bi 11.767572579188569 9.14117854537615 7.571962240346294
Bi 11.172261858608593 7.101582552322183 9.740848992304922
Bi 8.9920154712801 8.985879619781588 8.770780856651745
