26
Energy = -94.98450913 eV
Bi 17.390192474181745 13.079040149166685 11.002654826910504
Bi 15.560298191979543 9.20761609778906 10.490859023328868
Bi 17.30156200422414 10.501329935210713 12.619913016099265
Bi 17.363886994612635 14.956824693670459 13.45459435904092
Bi 15.019043283515277 12.941212800258125 9.028366264938219
Bi 13.701540085256058 7.3870261914834074 12.098974694826573
Bi 13.214606027993538 11.15431382531568 10.749422529840535
Bi 16.05229573247853 13.532097679536255 15.760346878189795
Bi 14.219946366063274 15.662449405065702 10.148472855713685
Bi 12.015893721647416 8.459176863026395 9.787412910807825
Bi 14.729010221957143 11.641748318910947 13.67961547375827
Bi 14.64981924958529 15.89076398046497 14.456920525249402
Bi 13.704013300623856 8.94742952286179 14.742655002109002
Bi 11.743450045572434 16.024586613851156 8.446655374170804
Bi 9.292656146649605 7.9126185005826715 13.61124595938806
Bi 12.740970726917645 14.510057539506798 12.5037847649418
Bi 10.834920660017723 9.729170137503385 15.426963095629388
Bi 9.208974935708893 9.066118631290387 10.851469971940123
Bi 10.72570199614315 18.37218747667417 10.079405097463257
Bi 10.712475042022655 16.77160820258335 12.680763314845201
Bi 9.338053460438681 12.025914154391595 11.384943119295322
Bi 9.272857151321103 15.728019787751839 10.221211094445763
Bi 6.668710302350739 9.282162178665022 14.271798051021461
Bi 10.254652383336385 12.436712877395786 14.264177373848748
Bi 6.445424005312273 11.651413594236788 12.379719411859215
Bi 7.362884356333146 12.067519132535825 15.250647322984577
