23
Energy = -82.78877825 eV
Bi 15.299201810826833 13.726355653919535 14.343263287545128
Bi 15.970066660777409 13.072872348988325 9.686643400367544
Bi 15.52497083427781 15.31972599906782 11.673982265073649
Bi 8.56018681446386 15.729801709678952 14.384101200305077
Bi 12.830657779410277 13.973308052651388 11.564956229837042
Bi 14.871669158617722 11.195223100865114 12.572649388536401
Bi 12.45710072309412 15.000260728748843 14.393793715802552
Bi 13.660414347526658 13.369353619331129 7.698402716307509
Bi 15.283941342071174 8.870938945814837 14.53975243343561
Bi 11.48081193001194 15.055438074599804 9.063769603321049
Bi 7.932024267806157 15.259967245824528 11.444672305776672
Bi 14.528967057080951 8.729959873034277 9.682875302086748
Bi 9.179723890397499 13.092426075047381 9.729956432748535
Bi 6.457877738735106 13.670723118818882 13.552513329169658
Bi 12.615417761032077 10.426061087954432 14.491077639891296
Bi 14.27845668297904 7.087782905758259 12.247558920204638
Bi 10.421604651980017 11.398938997038893 11.9888769956338
Bi 10.159121197558834 13.466716907708472 15.686182559462804
Bi 12.542044042734972 11.04997166846515 9.41521817487997
Bi 11.750457916573247 8.248892391479199 8.526942985571226
Bi 9.861798798658512 8.528204387610586 10.906716563207823
Bi 11.551004739932482 7.768521348509469 13.339691398125888
Bi 8.37929228616696 11.400895023560464 14.25149349342136
