26
Energy = -94.51207997 eV
Bi 10.498372215294584 10.299686831566055 9.44840157400562
Bi 13.261451534129414 10.056387943646286 8.276065531003244
Bi 10.233394461961318 13.323797230323393 9.851478638746855
Bi 14.408343472126772 7.620278426646913 9.688876736822378
Bi 12.909658321090802 14.508875579523561 9.043795818725043
Bi 10.291910425547135 17.132121176498405 10.195398476357987
Bi 12.705288047530606 7.079714899287347 12.12787784982546
Bi 10.552630451958056 9.20881600897182 12.257286433843198
Bi 8.685573451715399 16.799809562481894 12.783559413416265
Bi 14.887222012897308 12.361493472395322 9.321355035907114
Bi 10.60346978193624 13.737580543493912 12.895765814580109
Bi 9.046588838381096 19.562744606773943 11.64891679432671
Bi 15.366805572290867 8.495672341755808 12.445850666820057
Bi 13.379170045123908 14.822840800061451 12.455401544664635
Bi 14.67016163053506 11.466783686146089 12.354629963896121
Bi 12.047621283887844 11.225824169935642 13.952358778475235
Bi 10.88295219622476 18.59310746618101 13.883882461494512
Bi 12.856732814247238 17.72526138735572 11.70711993341532
Bi 13.54699293347476 15.444588034382587 15.551130467030358
Bi 16.732315274386863 11.966840404116848 14.646059742777119
Bi 14.72931734290048 10.75111501238323 16.468151210344722
Bi 12.772154968229778 12.985951721571126 17.072263389840167
Bi 16.455857164841966 14.915851599400526 15.15260639514188
Bi 16.58053557333633 11.60852256526686 18.796203828464854
Bi 17.241076511244586 14.481594304280772 18.06834485093055
Bi 14.62993640778217 13.83227423647766 19.416287330308933
