21
Energy = -75.0830278 eV
Bi 11.672572282782184 8.30465552254337 11.389785456458648
Bi 8.732519132795952 9.667632658946752 14.098758893189377
Bi 6.952537375323187 13.354035841859803 13.37883421530545
Bi 14.806659038463232 13.303611877534584 14.996252705947802
Bi 13.965692359914907 11.362804443999318 7.132960136592714
Bi 15.065572569350202 14.973724225734669 12.401754037641535
Bi 14.04145527002172 10.364628631684264 15.454101196038717
Bi 10.97358168128469 14.328738720631481 14.67814379006207
Bi 12.588848736686852 16.591335594100688 13.120685626263265
Bi 11.273682061426033 10.920595230546034 12.976441899896813
Bi 16.83130257681314 11.123872776478821 14.53706621284222
Bi 14.26243032150666 8.559123032599002 12.969737889539184
Bi 8.468286193503328 12.24565024440446 15.702027798110988
Bi 8.641667998990988 15.943484717623383 13.529476596713014
Bi 8.513457453154595 11.380263099260123 11.58541087175207
Bi 13.988977162081833 14.180102563669546 9.586195867396434
Bi 12.090858465467395 11.697702972413268 9.64614781816956
Bi 15.128904066423436 11.380724554386461 11.804546253883277
Bi 10.670196640790532 14.700884029103676 11.700865250150521
Bi 14.011075080858681 9.346032151840427 9.499252719404954
Bi 16.244094594791136 12.368677776863635 8.87543940704646
