25
Energy = -88.73415736 eV
Bi 16.73235340318333 7.1073809812411 13.063629713676415
Bi 16.072053097832033 9.73412472005689 12.217495655582333
Bi 14.046742966117957 13.540120637366874 10.965223275001131
Bi 16.31756020967291 14.281161792979313 13.705867747128835
Bi 13.789782592607338 7.826961943608686 12.954022716900022
Bi 12.517573573703244 10.098945272658401 10.187279469519712
Bi 13.441185947078253 12.95869305127699 7.934937112676668
Bi 14.382070180147386 16.49928752051185 12.913519462631319
Bi 15.518020710244993 16.292654070656244 15.732201878854953
Bi 14.124154522877856 11.969905535040606 13.777671129754976
Bi 13.056613406008138 7.096132347338617 10.089395514114383
Bi 13.3291777902856 13.981387385948366 16.09516366838476
Bi 11.237697149194048 10.735118925850307 7.474039575273509
Bi 11.69685850740461 16.06264471874151 14.447239203386625
Bi 8.967626852230765 8.524183454563799 8.456531340793093
Bi 11.733555870837238 14.91345315723658 9.583950192234727
Bi 10.9942811046408 12.562257334767747 17.50306434197815
Bi 11.209843326665437 11.141243275489803 14.88128691534343
Bi 10.352563716010197 8.014538892800909 11.101932847211193
Bi 9.735643390965896 16.02950496868605 11.880116807556627
Bi 7.250702432511456 10.602213733098266 9.686979198660865
Bi 9.649422571008552 13.725589665695454 14.891695708706186
Bi 9.381710631936537 12.783556207197513 8.801307539410137
Bi 9.402884903183512 11.60563068966485 11.60559654067223
Bi 7.644583776264354 14.01947915478104 12.379877573713124
