22
Energy = -54.65524978 eV
Bi 2.397865129964891 18.619120015366445 16.981285967857346
Bi 0.49582688097211175 17.124002603642364 18.35222194869127
Bi 0.8556589160967488 17.77866703643726 14.952217012131166
Bi 2.8303088337348545 16.020840943091052 -2.0691732915694447
Bi 2.8016215890339065 15.843478666712695 14.849396901391009
Bi 0.5196722743512883 15.313060836250862 16.234751586389535
Bi 17.945980882476135 -2.655730570063745 15.751822760341279
Bi 14.857526056144016 17.310051893680807 1.1753684289538249
Bi 17.56124970333945 17.728519206436467 18.61484561664434
Bi -0.4116482376259241 -0.39887979937710305 17.031781451750145
Bi 16.414980670935073 15.542743771416118 0.08405731190059842
Bi 18.211781568626574 15.0070996057348 17.952549405783248
Bi 18.05059840686201 0.05776316998259027 14.521609340088055
Bi 13.366524124068242 17.52227537071435 16.195662767792424
Bi 16.711486476760687 0.3507656025463431 17.08437111526676
Bi 15.774356960849147 16.000926994693433 16.7363506704805
Bi 15.028504745209881 18.376690233369054 18.225732829713166
Bi 14.085947962220231 14.934498530799248 -1.1065539531863986
Bi 15.622560621048173 -1.2930860106550606 15.221448717622152
Bi 12.733104864309839 17.236435182479124 -0.6803234636540617
Bi 13.390174527634993 14.756465102591369 16.05364546947861
Bi 11.202134760072495 16.08471027012098 17.134116806902842
