24
Energy = -85.94679371 eV
Bi 17.589021723474826 20.890208681609085 13.138708415433594
Bi 16.21432571796474 1.3875386338775786 14.788340625245098
Bi 19.114225394795305 1.7265372084192825 14.057543935362588
Bi 18.151720381440803 19.206946855526436 15.747745056532823
Bi 14.945268920020215 19.032728797348017 15.22013595190433
Bi 20.646359670531517 21.258950615044633 15.63709849348211
Bi 16.128120562377863 21.018829323206486 17.173081865448907
Bi 14.171998235660672 16.9413415521744 17.30252839461784
Bi 0.5857413888893769 0.6876630248634221 20.28975212201145
Bi 2.207728948608809 20.020517877211976 19.36359222729981
Bi 16.859174400189108 16.373291576190226 18.70347593717044
Bi 13.77339972544614 18.955463431227905 19.482085575818562
Bi 21.296983125404672 18.71771075870355 18.183315004028756
Bi 2.2823672608888326 18.34369996008231 0.537185578617854
Bi 3.3317302399432736 20.12608916546265 2.793157248627945
Bi 17.464445804613376 19.06522449439011 19.982006689462988
Bi 19.8574762823367 21.411362834260654 18.54840957200571
Bi 21.340249531339474 19.933705943555506 0.6452304242095082
Bi 0.38518211038886047 16.642580189268724 2.5443665994636264
Bi 20.059979658478476 17.581320743524746 20.75374880007689
Bi 2.606262641613146 17.673718971488725 4.4572768391756235
Bi 15.444602360609238 17.183396044084205 21.290960974085593
Bi 20.29870203394916 18.920182001624 3.3924101477405357
Bi 1.0495904991068896 20.243925596569202 4.78791075875009
