29
Energy = -105.40892755 eV
Bi 17.124062099864044 16.942443963798915 12.925522881415654
Bi 15.195596493566216 14.543042044630308 9.132474575341496
Bi 16.25094463526679 17.77802993053395 15.719973103746547
Bi 17.381914438855933 12.515552815842934 8.556562456686923
Bi 14.2131483237452 17.53913687114116 13.524577380748154
Bi 17.981320123497795 11.980669718520716 11.548093131934003
Bi 16.022504527776768 14.112434002901317 12.538067243356624
Bi 13.765177799358375 13.821766744609224 6.512334434570706
Bi 16.074837957780776 13.302713014925976 15.434066248332872
Bi 15.608609379489915 10.0476519415149 8.592966213556569
Bi 10.998099339291315 14.026715670126059 7.775772140685309
Bi 14.124723021542891 15.583203683339713 15.901923349980846
Bi 13.361103616179268 12.513494299455058 10.556468579193375
Bi 15.476697477976785 10.268524736852742 11.624117887442846
Bi 11.582136178084404 15.163551401633194 10.438998337055402
Bi 12.770800948876659 11.24631846542147 7.729070583720085
Bi 13.955911856444695 11.274956945421874 14.632667044135045
Bi 13.906964899346745 9.606499910083887 17.15152088802109
Bi 10.956007753188725 10.899755717880812 12.657163293537804
Bi 11.329954388567952 13.342031243088645 14.430492721070244
Bi 8.651233451728594 14.462288638268149 10.96862364767674
Bi 8.280303604760128 11.449501545635655 11.367373824205792
Bi 8.664432436041286 14.884466395935696 13.976082428348175
Bi 11.29431749064633 8.067216070105902 16.85435633971022
Bi 11.405850350954989 10.520284464864229 18.622460890825426
Bi 9.59035289070904 8.861246063597699 14.451266020598878
Bi 9.943944344901265 12.667007883523636 17.04462878310423
Bi 6.805437934868194 12.484277490900483 13.835057323303845
Bi 7.887522751843651 10.69912884060009 16.101228762848976
