21
Energy = -75.31632649 eV
Bi 9.367136014035454 14.317433517938458 9.767958615050043
Bi 11.204901009855739 14.130720885674098 16.262180875964752
Bi 12.989337194739008 16.539461926385176 16.965791792031165
Bi 12.426633333745594 13.95623975645341 10.558741500338323
Bi 14.56987910776975 9.993424112795804 11.50134186752004
Bi 11.70082806994219 15.453773050418544 13.572612300593402
Bi 14.086064141202202 15.19806711938437 8.259525177223184
Bi 10.729413479998914 8.357757867556254 12.786612506236155
Bi 11.796619899857115 9.596307850229147 15.344278530974808
Bi 13.649417040499195 12.33595224106636 16.597270540487422
Bi 11.84650708839051 11.208882088434986 12.664021189981089
Bi 16.653314289601735 11.496887866435516 13.000899288118356
Bi 16.890612392971736 13.225520355898405 10.462044863736256
Bi 15.505919108812435 16.014082178136945 15.307363624565403
Bi 14.429009428856123 13.493650848503634 13.86053420305961
Bi 13.610557448887064 7.894255525177356 13.599175053490873
Bi 15.110319352252477 15.652737181652151 11.095605792166749
Bi 8.895621583731355 12.237292318019401 11.82669716576475
Bi 8.75884516009242 15.133616323977277 12.611435712428307
Bi 14.537502591189122 12.227270602883308 8.806793388801106
Bi 15.172108953125033 14.67763476248414 17.993980051357692
