20
Energy = -47.01166832 eV
Bi 11.750961545803644 8.17782303987415 14.697696942096995
Bi 13.421268578848244 8.401239845042316 12.388181196130343
Bi 12.779354879443538 10.42048652269923 15.222888846793278
Bi 14.177826589672785 10.778970858538319 12.704632450107546
Bi 14.175821009486405 7.177531431920562 14.806703397920785
Bi 14.79458100436369 10.654932388177658 17.129282741138105
Bi 11.958304777792904 14.980208918136723 13.693043636598109
Bi 15.707203590715238 12.0016527139775 14.707296352031378
Bi 15.467719610010677 9.39953962184408 14.721439797001311
Bi 11.342125832550966 16.423849520788895 11.720981168033044
Bi 12.610282236688217 12.671400705605468 13.9581003518098
Bi 13.761996929066616 15.298141972927704 11.431161363888615
Bi 14.07205479674148 13.165131838440844 16.405202365564183
Bi 12.694752774883602 17.057358191448543 9.291110669515877
Bi 13.409152408134494 17.32410292291731 13.864936052414139
Bi 14.960664169421998 13.648486936802312 12.883970505647309
Bi 14.362321490948922 15.334394140093355 15.12134663708375
Bi 10.544357269772147 18.43217936597012 10.209568083030264
Bi 14.278065539483794 17.958969135542027 11.2435307801206
Bi 12.143557497926649 18.988756214836243 12.21204137051513
