26
Energy = -94.54617947 eV
Bi 14.33331578855628 18.994739836328723 15.460382700179268
Bi 15.629084517027433 16.66497548907403 13.822359362786784
Bi 17.462051437677058 13.339900375030885 13.14296647706489
Bi 17.688690845993005 15.194672703849696 15.53398934764359
Bi 11.585630115092483 17.76266844231561 15.688421697417644
Bi 13.015601309055581 16.327001206949635 11.566803631292498
Bi 13.788021573871983 17.0409988958187 17.689710309206017
Bi 15.07491475855936 14.018841201440988 11.148755040113986
Bi 14.644941092728468 12.076019530542892 13.429260042611864
Bi 15.966319873284206 8.438742840494482 14.694099631431545
Bi 11.824530574814633 15.150711259719307 14.066472855392025
Bi 14.757141916426457 14.642463611742143 15.984593066525642
Bi 15.63326536941393 9.607860863389028 11.902676595991062
Bi 12.255119876480322 12.282249696220308 10.249536354660624
Bi 13.621711520646787 9.78199306709537 16.116286900826204
Bi 13.101762740388617 8.001119177274566 11.563127535047885
Bi 12.130217078422092 9.529788395299045 9.069453009830012
Bi 13.49206657578888 6.840485457093304 15.489342577962516
Bi 10.578731265877218 13.703472416995165 8.226785409564668
Bi 10.192376860386801 15.935490565365189 10.255173545980005
Bi 11.589382739121959 8.815074146826205 14.067673504476469
Bi 10.28807134109282 11.870511456641806 12.524136835945864
Bi 9.0573900615221 14.645174706828405 12.739870154983045
Bi 9.112311863200876 9.18974467411901 8.881689208119793
Bi 8.077171843620064 12.001301579718755 8.302646766414394
Bi 7.8545026184439175 10.825305285758619 11.076277475190121
