28
Energy = -100.82503908 eV
Bi 19.588988413840728 13.398915971905762 12.560332893062906
Bi 13.930374634470326 12.462087078448473 9.165893014546098
Bi 8.086528027781856 13.742993822607389 12.171232487436388
Bi 12.261206378226804 12.670475879781451 18.061748854083973
Bi 17.71313469963034 11.333053113572792 13.815704356029828
Bi 10.913303194072686 12.811215861821267 11.426996979655213
Bi 11.822362144963591 14.82462654562813 8.879943625862708
Bi 10.005924691047278 10.350960527220206 9.861087836173526
Bi 15.044320129966943 11.802524842213632 16.899757577549313
Bi 13.726816289467017 9.604295594225503 15.218092319826072
Bi 12.96234084731813 16.142570387769105 16.584509572472022
Bi 13.255490713897208 9.777799932162345 18.22795311899599
Bi 12.144349996625646 8.690403719422143 11.579833247439176
Bi 13.40822720119931 13.805997999790321 14.576580560568276
Bi 9.992522910136655 15.699934573763317 16.231713954839147
Bi 10.783795846085827 9.547290530107666 14.178500399282365
Bi 16.812204376197037 10.400908816599298 11.018365247593168
Bi 16.768641055862435 14.199358945274481 13.30150210501192
Bi 12.773905368945378 15.83560926255649 12.267303444940172
Bi 10.075652400610773 16.717021975299996 13.336424645827872
Bi 8.974961540450908 13.630916008348642 8.982354080241434
Bi 12.685941124096544 18.139499721501746 14.238422348042281
Bi 13.978344233573258 11.095977646403151 11.95358829864011
Bi 8.359422034348485 10.841543532626847 12.594304226856673
Bi 10.661766557823672 12.761429380648366 15.45629138718165
Bi 17.378921608767318 13.351322131325709 10.425278780935631
Bi 10.87614210538758 12.998082244491808 6.569600780875303
Bi 12.2141891773206 10.562961656598892 7.616461558144493
