29
Energy = -104.1781151 eV
Bi 14.75018453457671 10.788324475574296 10.058389696913697
Bi 14.021191078212569 14.538605498590865 12.807139090424675
Bi 16.036426753184806 15.653732386275141 16.689064253407732
Bi 14.838943157468513 9.267535779469029 12.719027452148337
Bi 13.076445363873333 7.607118651875742 14.77911450236776
Bi 11.32591862162409 11.45241119102455 18.16355889804971
Bi 18.094559844608657 15.034742041939289 14.463312360379541
Bi 14.015600857733338 13.50097860423247 7.689196476041583
Bi 16.073830394864004 15.656513026958914 8.30242801476406
Bi 10.646679853348479 13.901801305666863 19.887825466046834
Bi 14.216055877243727 9.60979569277679 16.59888383789733
Bi 11.39576076305602 14.099882685713983 9.062236859320238
Bi 15.714873913040421 11.614520302304085 14.412908435103608
Bi 12.208388711487993 16.26753478372081 10.98148734156958
Bi 17.147343654952746 11.816748143632259 11.545424129987802
Bi 12.266282508931065 10.54413889628864 14.335440045182818
Bi 14.013357374507777 17.74056437527665 9.039746823620677
Bi 12.577871389758528 15.769922482396321 18.407446505321193
Bi 9.149230544373237 13.371325118914271 17.261805189189438
Bi 16.783008137808302 14.865092863998083 11.697204873820143
Bi 11.782200585430262 11.950305315818973 11.220003782753478
Bi 13.355096914139098 13.317848375587534 16.696751961486445
Bi 17.058661132106476 17.84215091998176 14.89214975079468
Bi 14.106600419949046 16.950422251174697 14.657346464991639
Bi 8.859709501981843 10.916670837918444 11.420024459050563
Bi 9.12151715546619 10.869093052896728 14.476626313092924
Bi 13.829390212758936 16.28357018599329 6.365328465673578
Bi 11.171918245669396 15.224699302740884 15.753121662799899
Bi 9.568875684090031 13.416667478768892 12.952014904557934
