24
Energy = -59.93854072 eV
Bi 2.324407119208233 19.68197602689192 18.873024106133215
Bi 3.3881688300401858 19.027865007735464 0.2092908609097257
Bi 3.3506618605733447 17.314401633887552 19.675127750281717
Bi 0.6759974183795202 17.587855429470405 18.919269675499958
Bi 1.1260700616221682 17.95034083328808 21.517090349974985
Bi -0.19451847464389796 20.45014309127083 18.69650106170775
Bi 4.006418623007431 -0.5765028643695823 -1.336185884146231
Bi 20.670339656521186 0.07344255676500215 21.40172617658729
Bi 18.512621888547663 -1.3076173800630149 -0.9254419041574585
Bi 18.26584971839135 1.44118647166322 21.46345378240905
Bi 18.983490640165556 19.91884556468596 18.07668525704076
Bi 1.2409109886294183 20.647967732905574 -0.4968449525953073
Bi 18.267440227893697 17.660041232255665 20.06739528099074
Bi 15.592794126755757 16.87878903564992 19.149024501559765
Bi 16.129381188733106 -0.1615606036150911 20.57236003311325
Bi 17.420929013858682 0.5279603422763138 18.257000909998556
Bi 19.851596238391387 0.7127011334633347 18.958964499530044
Bi 16.4395229775677 19.447147572405303 18.20867483552332
Bi 14.90152261570534 21.58176710390241 17.99513686335163
Bi 13.89998226430988 19.690607657786277 19.79032791371493
Bi 16.214247260027005 18.917519822464357 21.002649032853064
Bi 17.64097854309938 17.27762399681803 17.21906727741838
Bi 20.08636121859493 17.532602658668658 18.012521050246615
Bi -1.1888105220524319 18.774572287439334 20.907827156179057
