23
Energy = -83.42204893 eV
Bi 14.264600176474298 8.240832293018492 9.4717291045548
Bi 13.4790621290162 7.087279066069962 12.219990026775799
Bi 10.011798628062474 10.074831619527021 7.20313620988889
Bi 10.524299244758833 7.6857040135876975 11.901275102140763
Bi 11.839878117631363 10.108850614902643 9.741523160114609
Bi 16.111886184562877 9.843657804562543 11.318179215173778
Bi 8.628968560788907 12.670671901491612 7.90295773985535
Bi 14.319919241133332 9.596596133974222 13.765471368461798
Bi 7.3082738941440075 10.033406913062768 8.579798645304894
Bi 13.615398961535757 12.343569436169503 8.450610795944495
Bi 9.797212369000947 8.165692580323077 14.821709118954056
Bi 15.632647385791728 12.798045160292524 10.61140828632228
Bi 12.02498867692505 11.389040696378492 12.799972902156771
Bi 10.119573829235058 13.313809361153224 10.571150896878017
Bi 8.41408699367293 10.236601592072805 11.453530604500994
Bi 14.03094991926396 13.708710774234884 13.01136871901045
Bi 7.467695139286226 13.03261407713255 12.05642576692282
Bi 10.71028876447157 11.031112906064065 15.538265250237707
Bi 7.027373257921622 9.267379911174624 14.023672898077221
Bi 13.181292432118537 15.385063948718424 8.506097594854323
Bi 10.624141275733587 16.207243687407374 9.904981231654132
Bi 7.891032513019682 12.055525105578468 14.987670764309547
Bi 13.264231012781023 16.20651417768845 11.430316902092402
