20
Energy = -71.25135319 eV
Bi 8.781845499837644 9.476885639820152 9.872178089347303
Bi 14.734451462742825 14.91228509798168 10.479784742909741
Bi 9.991739025267746 10.846091627691253 12.355214557836481
Bi 13.41655425919096 8.730018249170163 11.377409489145792
Bi 10.411185494423624 10.826809368915795 7.70731129891005
Bi 10.246467019557025 15.91724395854536 11.881320159052109
Bi 13.096109953288973 10.447320759115438 14.042368747908414
Bi 15.905032844255965 10.210431171109336 10.409270063156644
Bi 11.765420662637394 15.196355177437068 9.401930925747674
Bi 15.038719054581339 12.494161997103829 12.447325659009568
Bi 9.046499312868393 12.539714707317652 15.807200439387058
Bi 11.474343214954613 8.310340588726389 9.053214825517758
Bi 13.403470613035983 15.695696796435167 13.237761744518078
Bi 11.987663257396168 12.191222286754423 9.878436832365127
Bi 12.491752893101856 13.386317755812989 14.909887207543544
Bi 8.159338791575491 9.870204516733724 14.627656929617073
Bi 10.743027915048298 10.036213262827738 16.151394448501854
Bi 8.681261244365277 13.564107500624546 12.789726362317039
Bi 15.446783991924988 14.138068402385148 15.034225108830727
Bi 14.73957651830493 12.334720395023938 8.629196951528533
