27
Energy = -97.31025004 eV
Bi 14.68134121524602 6.85769596831061 11.987513745136274
Bi 15.042771951147461 9.95364275482636 11.920876535176387
Bi 17.37195214898094 11.893821828806553 11.550186963980543
Bi 12.667807105822153 10.221777183754645 9.37878544773022
Bi 14.626550715429948 9.989380220066606 14.953882634700172
Bi 11.93182013723326 7.784002484783158 11.080437334829618
Bi 12.680474805082673 7.746579712271795 14.080307665967757
Bi 15.14504781954463 13.462288834446381 9.873263137051632
Bi 15.441507727840076 13.193788030266315 13.609564158324476
Bi 16.399355816016822 15.44384843706534 11.78794561035618
Bi 9.861875263917188 10.558653404911725 8.304589260181881
Bi 15.955213621455515 14.228114484846065 16.47591577663489
Bi 12.626363781043258 12.549177888631412 11.608342270081598
Bi 13.588509579656964 16.52255128882266 8.93996217400673
Bi 13.788103600050198 12.861535402283918 18.108347031063087
Bi 9.878270781717847 10.358642266383475 13.331330726221644
Bi 12.265289404198818 11.804309863323091 15.657876267544932
Bi 8.467267048294238 9.46034064452918 10.76746684688201
Bi 13.00984567896981 14.808426239362735 15.916607095021682
Bi 10.521965943559806 13.418069596531753 9.438374423394675
Bi 14.037402077354859 17.416760494522595 11.770601532934105
Bi 7.017417739675176 11.213194562580151 14.153339730371808
Bi 10.66855985106725 16.586239001166383 9.668050236382197
Bi 11.655970331572435 15.604929813949605 12.362758617114228
Bi 9.21519445341978 13.335690357326905 13.903260191976589
Bi 6.358808885277459 11.606227457561578 11.174598119415462
Bi 8.100574670673762 14.12557393291825 11.201078621768481
