25
Energy = -89.88999651 eV
Bi 17.34440612412818 8.80489628447601 12.181079353378491
Bi 15.071826164578324 6.96001148829424 12.979689599584916
Bi 16.137623038627627 11.464201754311887 10.774091987285837
Bi 16.380754476943455 8.738256147994994 15.043776669656783
Bi 13.959470054726872 9.447246900341423 10.256749863553935
Bi 15.301416176797185 15.29285131551193 13.569222934291956
Bi 16.16782452966863 12.323306139794488 13.676268976738012
Bi 14.99038584366435 14.213743478935838 9.138962085600209
Bi 12.659163044053566 8.934809893283418 12.904607246115871
Bi 13.090146753072508 13.038066873029905 7.31509344445119
Bi 13.974741305388902 10.719524614444024 14.983681680031422
Bi 11.748819416320778 11.461528429058099 9.508582913825975
Bi 13.507234945785742 15.526924608108557 15.999096638821504
Bi 11.361014184326672 12.460212452784042 12.413337451628252
Bi 13.173736123867402 14.850535540267613 11.546728674667905
Bi 11.699172942561693 17.525308843303723 12.001560802291753
Bi 10.329968980322267 11.540253862140252 15.255102983825044
Bi 9.181701462265627 9.854436015266213 9.00682491766745
Bi 12.094795161798757 18.04059989757427 14.956038816848475
Bi 10.641966136789533 14.472282260845827 15.862194024927339
Bi 7.597954998897843 9.620571791740957 11.573002725779684
Bi 9.548759627564213 16.57904383303724 13.8621444686219
Bi 8.77994242760743 13.916876720653676 11.611817968042898
Bi 7.732359611372308 11.901864143046309 13.669866526872525
Bi 7.199451545813618 11.995804258876978 9.698840044215393
