20
Energy = -70.96661146 eV
Bi 10.800689470182107 12.919329105060122 7.151849278788148
Bi 7.803415213786115 13.094692544595866 7.7800925125225024
Bi 10.647417725369023 11.539615774645046 14.054617129611135
Bi 13.566750645172872 9.695654129857031 10.808771288219006
Bi 9.874382607546982 9.86867857739926 7.389762869209408
Bi 6.778915259030197 9.155472615675926 7.1596456247632645
Bi 11.514307257935624 7.453723175516491 11.222659847004286
Bi 8.112365128078036 6.472129944200939 7.8158055185390625
Bi 7.886439875476018 6.814491676764621 10.85135421076062
Bi 11.191219434720097 12.52984703599968 11.167822750241339
Bi 9.898853584776178 9.888962580027663 10.405264867078586
Bi 8.211046111260401 13.160231333566864 10.814106773738223
Bi 8.175670330525493 9.737464770499319 14.108608303137201
Bi 10.97131121904145 8.498203606959807 14.084451433007084
Bi 6.988239257569559 9.72443223863474 11.254673662664246
Bi 9.689378731617511 15.154269574458434 8.904574059005592
Bi 5.410687785484456 7.119731723785184 8.973679556030296
Bi 12.04631587851634 7.538388214172029 7.163242058562807
Bi 13.70603971218705 10.044501288164211 7.768995039263435
Bi 14.531060725257676 7.392886231423348 8.927743459961128
