21
Energy = -75.28387754 eV
Bi 10.46413223127329 7.788448149312799 13.938179439580237
Bi 11.599739062832358 10.309363193037933 12.582135533124573
Bi 8.489727896088755 9.200352908604467 12.067863257950341
Bi 13.50826757829263 12.015056738781547 15.290339245292012
Bi 9.234429154776143 13.613734379441054 10.499937856892194
Bi 17.166914940689757 11.670347138992678 13.764581590014767
Bi 8.956643655504818 12.10128265020886 13.16365471866691
Bi 11.870551019077736 17.565916864545347 11.31658325755222
Bi 14.77694610431805 9.749245135597471 13.68817091009635
Bi 16.022188719458885 14.278389867855973 12.693943928334432
Bi 10.540167022734922 11.997987579768267 15.910945170261225
Bi 14.78786453741585 10.24376954423102 10.549433741044787
Bi 10.727258805693783 8.904226281221296 10.001298304364951
Bi 12.074747813164972 16.108775622125265 13.970074386333863
Bi 11.986258057205962 14.730303967947126 9.82348476617759
Bi 17.116283769819358 12.19114817423291 10.766604597620514
Bi 9.767766436676984 9.20219315325675 16.47092206656678
Bi 9.479077985889367 16.26800942304263 12.419525134312167
Bi 13.44691163152767 12.241130631214407 8.650702770266689
Bi 13.072525152723266 13.555135735894822 12.587000078356924
Bi 10.571647300566493 11.481203175665753 8.434661864443441
