22
Energy = -78.44323257 eV
Bi 9.947259365342909 11.409234782668754 13.479073948649974
Bi 12.64813917969615 9.973665408941857 15.485325191534963
Bi 12.681369326393755 7.587084517941494 13.581373308050468
Bi 11.389315109427931 9.568162772836569 11.511715348032602
Bi 11.029799275148768 14.791169037463318 7.870022994445639
Bi 13.992956079708918 13.349582366581386 11.617116242235166
Bi 14.374940697612171 10.117662885004183 12.951501368868325
Bi 13.785071044216231 15.08547542423117 9.043279744405794
Bi 12.339948081204362 18.138332632878196 13.291370344111035
Bi 11.581050615444253 16.36032531145164 10.69124787254218
Bi 10.876996792676309 12.46873646205269 9.74910298209578
Bi 9.799086517397878 14.212147477185175 12.06535596830702
Bi 10.020958023177199 16.68370074160959 14.322611681022565
Bi 16.960167611243175 10.840907247791085 14.461865397241422
Bi 15.190927209311665 10.177145719171495 17.17133087410389
Bi 14.223620569431565 12.913286002932553 17.80934400563658
Bi 17.009945519255066 12.56182325138363 11.641852935206261
Bi 16.012821314503764 13.6363472034034 15.300324377728325
Bi 16.178765548077326 15.246868969170139 12.531313050274413
Bi 12.989579825050226 13.454169411542685 15.003391091760447
Bi 12.647119388733122 16.409821437706963 15.79695377724448
Bi 8.539483770106605 10.686311671681114 10.918431309292208
