24
Energy = -86.0381092 eV
Bi 14.942502729362529 16.579722220677084 7.53462467110216
Bi 17.308227594907567 10.250181486204044 15.557089193751722
Bi 14.67085729411608 13.652727666228376 10.927924908215347
Bi 12.164235716471618 13.123410016005002 12.625577901980147
Bi 11.886858722861417 9.369284933960664 18.330985078353777
Bi 12.73034359509205 10.673213145131077 10.596362755463575
Bi 16.488977070473048 13.005880881262966 15.028392812142028
Bi 14.484986229719263 8.852017719383365 16.466746762436753
Bi 12.835706695373668 9.658083346760172 13.980171255152763
Bi 10.942999512440045 11.88827312513118 17.008131009288746
Bi 10.735012572986038 15.202491206655065 15.025325455521006
Bi 15.169039170473775 16.71133714975454 10.521610133324259
Bi 12.44585789002884 17.658193221177577 15.03763546938905
Bi 13.60794915313652 13.619504923729084 8.029760154015973
Bi 15.615138021256554 10.732168844400736 13.048980842391696
Bi 12.745947106440003 17.894190401491908 9.10177130183589
Bi 11.872690240146234 16.53109830563012 12.264184668775076
Bi 12.633692796158549 12.008343249826567 19.49789766949346
Bi 14.078876629232264 11.89118505583944 16.76337333887291
Bi 9.637217879053823 17.781689147429276 13.95089893008679
Bi 13.685344702021181 8.055888767267836 11.540272886556448
Bi 10.94381175175997 11.601044852022303 8.375684585630834
Bi 11.183809203955771 15.323203517013896 8.351928599163882
Bi 9.957355097958107 13.51365945483451 10.48726526152291
