23
Energy = -82.14349881 eV
Bi 15.659402294782076 15.889851115999601 11.51322633097448
Bi 16.535696446923836 13.108199301800054 14.193483863335043
Bi 12.859008574766381 16.40078370474624 12.413181296042271
Bi 14.982321770597931 15.713554637958131 14.508297845787128
Bi 15.823708563937906 12.827239883349085 11.17036888845097
Bi 15.027032612740177 9.039754604477668 11.640268678104523
Bi 12.764197393778078 12.545051775606359 17.131703803545317
Bi 12.346752137043074 14.822876246517469 7.956715149932383
Bi 11.45861017307414 13.714972696868054 14.630403601360744
Bi 14.868097995440516 10.934711915191325 15.572876723973314
Bi 12.528053986825345 12.195563208523518 9.54928761384193
Bi 13.517253234697277 11.533752646878051 12.859133639775187
Bi 10.957350234429844 14.574547153724543 10.64880370058196
Bi 12.966940519354415 6.886162454588949 12.158949210138537
Bi 10.732143494828428 10.829706712819705 15.663650628325458
Bi 13.038969573377935 8.282897744951644 9.494086563134884
Bi 9.788043925894984 11.28156595737787 8.289218745015074
Bi 9.387453221767105 14.22985126075558 7.760216172522504
Bi 8.601810803454606 12.934468281833194 15.575016220552609
Bi 7.352462025521726 11.241722759256572 10.138102391138288
Bi 9.041529628141774 11.935816134417314 12.63100121669958
Bi 11.167201450858029 9.3327353810132 11.76899214082652
Bi 8.076808695617267 9.082626383251393 12.122158055664253
