24
Energy = -87.36855608 eV
Bi 16.439524201010155 16.6275034983272 13.252075678194677
Bi 14.990036191008286 21.328157815737086 13.575937914081488
Bi 15.771177710229475 18.878267187783937 15.178875988866972
Bi 13.572563923703322 15.607395649638933 13.184397025298415
Bi 13.933212574473362 11.5341597886326 8.974940080273855
Bi 13.503723317685349 19.74903945549748 11.45533270689274
Bi 15.444589412785081 9.032394074963841 9.495303895984643
Bi 15.75299023908263 17.91507647850509 10.610939960673393
Bi 16.877966186630815 12.676720783134787 12.448815262405661
Bi 16.08164791684289 13.51776474222013 9.663846080526028
Bi 12.876665501135514 19.343252148455235 14.397476584366716
Bi 16.985953447008246 9.649179060529422 12.007549873888598
Bi 14.231301233182428 8.45751303455843 12.58015378642824
Bi 13.858149178130486 15.53808362044517 10.13622541237827
Bi 12.480152073026732 8.564510750077096 15.314849666001159
Bi 12.214229273404921 11.193362390038939 16.680499008885224
Bi 12.89406841010243 11.123732908373281 11.878642653227217
Bi 14.289436245430007 12.764671759822345 14.015821792402807
Bi 9.950822030941984 8.488535564240065 13.750005097384085
Bi 9.625769624797842 10.346785584078239 18.169941602071336
Bi 10.520219600879871 12.961892990247533 14.889715341453346
Bi 9.875048264908756 11.239670437397974 12.550453450550105
Bi 7.970704371851168 9.122049321390085 15.984024258215216
Bi 7.941257716996343 12.114742220967008 16.357695086630134
