22
Energy = -78.75506169 eV
Bi 0.6736960386181167 2.5312684046211484 18.783800026931555
Bi 19.82162436603692 4.174090388101541 0.0646935022542268
Bi 16.81410564599549 3.8308805582989245 0.057643328442013725
Bi 1.8165824718056705 20.54423226284362 16.31474328913259
Bi 16.785514098259963 1.1158431215891635 19.312510423857205
Bi 18.475339827470698 2.616540829877687 2.2830329446207727
Bi 0.43165531886906144 20.230865989027134 18.993078675759115
Bi 0.7920691111255727 17.916667887122394 15.22273333815824
Bi 15.445859436009979 20.25453254816524 0.7592659652791516
Bi 20.024446514986497 16.939833563861637 17.54186204916982
Bi 18.449552372809197 20.67722730027836 0.7961507858585101
Bi 17.535977669435894 18.927121029614753 17.508105829706654
Bi 16.435742331130253 17.703220179364873 20.116788402923476
Bi 19.765463787523963 0.9489358264639148 16.76877059197355
Bi 20.378055916594278 14.520351199849955 15.723450482577054
Bi 14.719664779287754 17.77834038191195 17.654179351342876
Bi 17.18941576917815 13.746869511529153 19.035377747997458
Bi 17.434275031982036 11.650997081457643 15.240934505947845
Bi 15.93046899743986 15.095281738888843 16.66940444640977
Bi 17.76304892836828 14.546103749554593 14.252343588402281
Bi 15.206027166787282 12.144529403031672 17.32291893841732
Bi 19.37146566856727 12.239519454735225 17.53886672829701
