22
Energy = -77.65384316 eV
Bi 2.8347346799409694 16.980173578869405 2.2803957973116162
Bi 4.747601219201178 18.038140194287134 0.06096259185975208
Bi 2.774179545741149 17.538532510200525 15.997877528635044
Bi 1.398368813825142 15.269317286581265 0.2835679362831542
Bi 17.83221294383026 17.985108159075164 14.53381809077631
Bi 0.4665133621340195 18.097740204298102 0.7584966711386274
Bi 2.8535554534998258 1.8736276172071076 17.28309252579186
Bi 16.6553722961141 1.646919878225012 16.60943244965122
Bi 17.548452702392268 15.859336167814602 2.514343734596286
Bi 16.450784934642623 16.751469919824665 12.117683388164737
Bi 16.852513869212327 2.514013977506595 13.731037339871094
Bi 16.269390377981097 11.626234977082817 16.509213414276825
Bi 15.902814682463326 12.703385224826054 1.0652488023556745
Bi 14.117032264946886 2.0874379918196366 15.058187914188931
Bi 14.203921294224076 12.367006870103854 14.41728834311887
Bi 13.44953753476449 16.6832206174469 12.057747136244712
Bi 13.59947226493577 11.233983211441858 17.988576366341785
Bi 14.997113240300292 14.094520200962203 12.05501790764793
Bi 12.665336074489497 17.675617798202502 14.791308483926386
Bi 14.702980015408741 15.395536181371737 1.5108951332458769
Bi 12.15369896777961 13.434807774472384 16.364765792374193
Bi 12.882412046689659 16.155824660265743 17.428972356861774
