20
Energy = -73.15088102 eV
Bi 17.98764235977216 10.943360688106932 8.34378039959463
Bi 18.166302232845503 10.404021777907278 11.347487355836009
Bi 15.639217961726683 8.983948452957394 8.154002040523231
Bi 15.16033217784226 11.966671910413648 8.083481159031585
Bi 16.96393937440147 13.032271937260905 12.137870558718616
Bi 15.830487395369639 8.468620546867557 11.158742797077036
Bi 16.55320347445148 11.877805473133071 14.898142721243378
Bi 14.242295194938936 12.81214183034684 10.886842839206388
Bi 13.360382679429687 10.083679728935357 11.757913734130193
Bi 14.177871173565972 9.991343053029071 14.659303657474657
Bi 13.796980765498217 12.741965339174927 15.887677169520904
Bi 10.519903496036706 12.736884698072814 12.83884098945321
Bi 9.782061451346452 13.022355466006504 15.761170262680329
Bi 12.807436538731226 14.584887516809124 13.691323891447592
Bi 8.98371313393818 15.057501503664946 11.6793127839323
Bi 6.78946995156678 13.535761184093822 15.625499384697331
Bi 10.945600273782132 15.796058734092204 15.890771382490932
Bi 6.227895789866416 14.306720485584203 12.765326618717369
Bi 9.260308981900845 17.185527492120745 13.833092709290282
Bi 6.5031895251038305 16.45170767592572 14.935799706660607
