23
Energy = -83.37222643 eV
Bi 12.78521401749274 15.645600912422406 10.827255027890091
Bi 15.07013100146711 8.870822266531901 10.453994884561006
Bi 15.905180610661022 11.792625611611639 11.013036993139723
Bi 14.01526653836796 13.373128165270492 9.19876058166324
Bi 9.773929889466306 15.32377625283742 10.367288373224442
Bi 13.368090363583347 7.937362483715829 12.814516581296346
Bi 13.201839215062403 9.35682886936443 8.11939004560042
Bi 9.931845155568155 13.358341873588474 8.053891828544582
Bi 13.707901522213957 14.890375975197802 13.675074554488342
Bi 14.673385542332262 12.05799159659146 13.783314521748492
Bi 7.352243701499063 11.880825872923236 8.649298888784843
Bi 12.080153050052475 10.719702944475866 13.077709265334175
Bi 9.76553709170681 13.012212946228061 12.362482188231201
Bi 11.30882692723475 7.0375325134943045 8.533071770190087
Bi 11.850026890685001 14.372328725221546 16.05015976950623
Bi 11.736843226659996 11.477315427518144 9.738524980956994
Bi 11.130526295191762 11.427743467623031 16.02273596859511
Bi 11.01540711676789 6.630417743968666 11.456727476586368
Bi 9.047964620687306 13.520546892577514 15.283813821846916
Bi 7.160882927433576 11.653509221715389 11.606047691316105
Bi 8.825456031917044 9.066493297705028 7.916387780259047
Bi 9.113835053619276 9.18885142936182 10.987541381185133
Bi 7.098653669101475 7.353368159626333 9.678870377847701
