20
Energy = -70.80085838 eV
Bi 8.664546029686553 12.485324371658468 9.82279801453779
Bi 14.8592181266618 9.859063135085226 11.622639999384978
Bi 12.485104409671473 15.706249313506927 10.366424194431259
Bi 10.793942183715302 12.13668167837308 12.077214959233993
Bi 12.126486626252062 14.987809679763076 7.444336989771627
Bi 12.079277860429173 9.580366208716447 13.216363283322133
Bi 14.141638551793887 11.446858924465756 14.96994246597427
Bi 8.141461968650846 12.705350951665174 15.519114348085107
Bi 17.743709437039943 12.723062311062504 14.685999264076441
Bi 10.817176427863762 11.123811701829004 15.797557902895067
Bi 10.867936670734295 13.974293621185508 14.885405109719768
Bi 9.663735101709305 15.308587007056115 9.247696740233511
Bi 7.923731327879442 11.504073732362762 12.698580279359918
Bi 12.938928465317284 12.847639496113864 9.50904280453347
Bi 13.75841399672039 15.253148971513658 16.111852309190095
Bi 16.604611866738065 9.939228435916196 14.082721104276501
Bi 15.953651258741457 12.327181902543535 10.206636245021034
Bi 15.7858194941505 13.271157994433706 17.030928406982973
Bi 16.65623177459332 14.377478191551674 12.36643346485125
Bi 13.832076343983822 14.117032429868067 13.299820596276108
