24
Energy = -86.2655076 eV
Bi 19.29780699567266 15.50769187577758 17.467844055544727
Bi 2.099621736770258 14.3835840039166 17.351060311971427
Bi 17.506710295064327 12.247107797635774 19.358279770709228
Bi 1.634550578861525 19.016027362290046 14.938351643533073
Bi 17.350100801563812 12.400413714247255 2.185529197356127
Bi 2.8832195505402654 14.97040661238491 0.009987772664948184
Bi 16.504347529861928 15.211862091925234 19.15813120756321
Bi 20.05559260979179 16.0521624881924 0.21580396258212894
Bi 15.402357289852139 18.14462284447504 1.6225780386659072
Bi 3.5938770713831705 16.930425939646852 17.971137913507125
Bi 19.982236704625162 12.959617790334532 0.8011136253789409
Bi 19.289869347652655 18.519942151406674 16.618698519148108
Bi 13.593414448751103 1.0004914833519762 18.863287413089527
Bi 1.74697546932356 19.418205227117273 17.911942505125104
Bi 14.473465155575816 18.191894314798812 18.881723372590326
Bi 17.241161140049353 15.542002106472724 1.850925207825826
Bi 18.298659277048728 1.4441895355947136 14.935421623770138
Bi 17.41283367270538 18.618029611066273 19.635701657268758
Bi 14.824721817321603 0.8600391526337942 16.097513129908016
Bi 16.528845342154533 1.602306831008391 18.501239635433503
Bi 0.9596318435921118 1.777359652924516 15.414946087819011
Bi 17.59244583392566 4.3959813092585796 15.203741715192594
Bi 14.592481486127527 3.869395999229464 15.464633033351404
Bi 16.215641760165322 4.62680233490021 17.893980003624087
