29
Energy = -103.42846411 eV
Bi 17.7615416963529 7.886940851715103 11.65801740436802
Bi 7.772236842041062 11.78230199170982 13.565147011585635
Bi 12.425317150438495 9.915479546504356 8.815787850598117
Bi 14.483146329226617 13.89953394625426 16.832541252747497
Bi 18.716011588368055 17.63374994779521 13.583342569809625
Bi 11.439681273908626 15.193353825491316 9.556539810597187
Bi 17.965210020024955 14.920597344875068 14.693845522034938
Bi 11.017086390209766 8.241013783293365 10.875995031311412
Bi 16.251925230718893 8.461516753406023 14.150405283932088
Bi 14.097940132909228 14.976259606325375 12.189172808846404
Bi 11.29411945318416 17.868369548639492 11.017866566959354
Bi 14.9485862243231 8.82216805600687 10.46430791409554
Bi 14.32421505871595 17.780803157121763 13.3526061501509
Bi 8.96817402230997 16.896205617124334 9.195705155291725
Bi 13.25210729143923 9.352562770572424 12.945097646728051
Bi 9.772905975007632 16.769777189572107 13.417767077811364
Bi 8.53759028603993 10.835674758134617 16.34745467859179
Bi 11.379258875488333 11.12485663173119 15.28068418550404
Bi 19.646682518778594 16.872326011466708 16.314136513083923
Bi 9.499064827600881 10.908573686520636 11.132452440844805
Bi 12.3889706818131 11.854395172125104 11.18858265048771
Bi 14.607696131851059 12.57192407443928 14.093697766633168
Bi 8.998229137848623 14.669406489651811 11.336018785791968
Bi 9.521659882852916 13.535657492528108 15.347832716827567
Bi 17.28353875627168 10.78878834214531 10.791251183100773
Bi 12.492421523523928 12.119365883891623 17.91899658447923
Bi 17.36957396547972 11.278673084530514 13.803030030304356
Bi 12.466436915133178 15.733990833236676 14.628096953488525
Bi 16.533261402466582 17.371921348601397 15.677644648664215
