23
Energy = -82.51340139 eV
Bi 9.84668649021003 10.333197573570486 11.529356921262124
Bi 15.335168111749862 7.585028107725702 9.97186884858784
Bi 12.875663482800693 8.054119232053946 11.9243366168002
Bi 13.457932702686607 9.943222978720907 9.547590034112757
Bi 11.607598142153048 13.353322019022112 10.337303933354454
Bi 11.262797867141915 16.270230987417243 9.69141478288385
Bi 15.856683132695833 10.151505793349163 11.373689249878318
Bi 14.47266547324519 16.534559135374785 15.370938095631995
Bi 14.145282679922973 9.75972890588695 14.124932940401443
Bi 11.49034640508479 11.576252631852334 13.847586926061439
Bi 15.200042315567213 14.906718991062515 17.807947205600446
Bi 14.867383748823737 13.639552321443269 11.563005981332184
Bi 11.256437054922541 8.93344282785525 15.3811607073502
Bi 7.666136962718596 12.01727338341334 12.855603805132578
Bi 9.25236886198832 13.78381999767163 14.747732674982947
Bi 14.423236439413563 13.517158085606392 8.612035650614022
Bi 14.446431292867686 13.465166859354776 15.227362634423391
Bi 14.151146502041733 16.5372725952983 8.56233571648273
Bi 12.340767667609756 14.956881487346706 16.820964659167117
Bi 9.904550398983838 7.6744691770117015 13.075079669358477
Bi 8.7635058138076 14.698976965754333 11.930895950326896
Bi 15.014843141952662 16.638119727434358 11.491152771617077
Bi 12.23210167416821 15.526754493362375 12.48388173354666
