24
Energy = -85.7310038 eV
Bi 0.4662586885565223 11.129360288639061 17.94031159564218
Bi 19.337977961872497 12.571498640786222 15.700166371928377
Bi 18.676279811471318 13.024158410231019 19.263094550743272
Bi 18.418773042052635 17.8433213636924 14.529293202403617
Bi 17.78594182614473 10.618344237740214 17.328797218851786
Bi 18.685835675806786 15.392187997602624 17.164630828918575
Bi 19.543231131256046 16.617409650384065 20.038838325143352
Bi 15.767020012432639 14.50991743460569 17.121641786743936
Bi 17.728042120267556 0.09508437549804684 12.928756314791144
Bi 18.978077751527515 14.518268679674534 1.846322835442038
Bi 15.53310079514595 18.444913880041582 13.839656205640537
Bi 14.750436653980135 15.268313955924729 19.880797172744142
Bi 13.760788361626021 16.779434677708135 17.44387628973796
Bi 16.89249963961615 16.690489650023196 1.2644247409026788
Bi 14.2918858467999 19.591985209972535 16.33307721279819
Bi 0.07445356634412925 20.040984112217473 19.318575694743345
Bi 18.92658318374678 0.3399693546595525 15.75233725337405
Bi 16.45853553327654 1.2175647283774746 17.25296152345324
Bi 18.792782138068382 7.077606880098282 18.939128244566245
Bi 19.15473519672188 1.8332531504014513 0.8218804346005609
Bi 18.04321989170269 4.0785470084953985 18.75530773207664
Bi 17.34520952967295 19.922149936119755 19.76744771039189
Bi 0.28410927564466937 5.127407574221859 17.393350908293705
Bi 0.2863405465413374 5.070571759735777 0.14634796361345936
