28
Energy = -101.02621652 eV
Bi 18.296111120504097 13.378428720870602 12.874750648349702
Bi 17.584781223066226 12.543806865583296 10.01414679039921
Bi 16.64356720979775 15.916308533609042 12.413675297721836
Bi 16.380275343277493 11.052964901010046 13.906474361777951
Bi 13.257513051400062 11.059484635377656 9.744742067702402
Bi 17.317324450801564 9.737328786563767 11.207468785849985
Bi 12.280762593784827 16.711150540415726 14.009143664771074
Bi 15.194441406679697 16.555855349657197 15.046038255305563
Bi 13.202587865177925 16.370133842375793 11.095085575796922
Bi 14.738255698960254 8.45989801258362 10.116604266570409
Bi 11.55392550322637 14.196385680078452 9.660180257274783
Bi 14.212195423157562 8.601470713237097 13.196318149380506
Bi 13.320658723461188 11.947398656938216 14.25677015137127
Bi 15.151277386633243 13.337454739767029 11.693060879239445
Bi 10.502508102826702 16.981537738207944 9.793507059361392
Bi 11.519217698631113 9.520860629389881 11.996276744271118
Bi 13.093817771657458 14.550310134884121 15.941354425501896
Bi 10.681476837082604 10.34525208903962 8.109196886309002
Bi 12.152398890342438 7.5030235440833035 15.357597403371084
Bi 10.559286833022597 12.714231929273671 12.320463745078687
Bi 9.878743198639778 9.380755865691755 14.766471555857844
Bi 8.653718097805859 11.348751811682684 10.119681978286465
Bi 9.102205296152508 15.518635956375874 12.252647561418014
Bi 8.62058351526681 15.699530809380564 15.340021684227223
Bi 9.318534316419175 8.439900900429606 10.00973235114565
Bi 12.130693114726315 10.275754825459337 16.571401252022987
Bi 8.223852476304904 12.830980580776421 14.579739474077659
Bi 6.345182764276509 14.938299120339963 13.52334464064266
