25
Energy = -90.53148891 eV
Bi 9.199086071149951 7.787541633380516 11.299029984656547
Bi 19.533160042915757 17.86590160129953 13.861810446232594
Bi 14.290481361170976 15.480899428849488 14.314110589391408
Bi 11.75917166971259 6.454843929747131 12.246903296264072
Bi 8.689669261550922 14.359725525412063 12.873064672725699
Bi 8.768566702562516 17.180757987532562 11.714902681154605
Bi 14.41886825618569 12.514451682726827 13.672243778198627
Bi 16.565754740380363 12.093626863816164 11.525559490992862
Bi 11.510913126523507 10.528438943439804 14.13874862163184
Bi 17.265784539853907 18.28684617388023 15.874798215322405
Bi 11.280391909726903 15.486461645399537 11.734122897990607
Bi 15.333682852213824 16.571481866288867 11.72239953698466
Bi 9.91827885194902 12.846776470679215 15.680015737515868
Bi 9.036839573943396 14.836903450092922 9.84271462325649
Bi 12.602130905060205 9.995191886099132 10.365885936665999
Bi 16.84662210487113 18.912866540342847 12.947203413042173
Bi 9.314908761656797 6.585933399049338 14.064301138592246
Bi 13.73985446836027 8.696745363053289 12.77060594190931
Bi 16.79672377928023 15.275709424238965 15.944470172637581
Bi 7.967676151774806 10.958729828850165 14.555825470081743
Bi 9.679402268848037 8.92667008093382 15.971911869885057
Bi 19.03657486653449 14.858747608127429 13.933217476295676
Bi 17.753969077618954 14.864232403818212 11.22728898397964
Bi 13.734989437046153 12.837381544766679 10.733275257031268
Bi 9.775564571151811 10.766202987783851 11.656909702649228
