28
Energy = -100.69137606 eV
Bi 8.924594845002174 10.179166813000226 15.113802831352293
Bi 9.702899576101752 17.411096299647152 14.654799385147014
Bi 8.701575579647274 17.691684847039046 11.828233606416774
Bi 15.755636224605713 8.933108800183925 13.732526153666234
Bi 17.494585201175553 11.443333082807552 13.895838220383695
Bi 9.872455894702288 13.891510771318307 9.675039817451934
Bi 12.36342141533848 7.299612782066405 13.632901726675579
Bi 8.974451420823454 13.07057185123601 16.08057680891498
Bi 14.146853802684195 8.006801783897572 11.273098983774794
Bi 10.678739847025401 10.832753926229008 17.471198039010623
Bi 13.780718476503933 10.850068879255927 7.538391773623209
Bi 7.828162165049185 15.356955935184164 13.471519681481242
Bi 10.285118669115919 7.611643232336333 11.411080824255594
Bi 13.490881449037579 11.706217460530729 16.578053853657767
Bi 13.548164684515362 12.967494927969886 11.492715713660557
Bi 11.815732268502027 14.203048875347436 16.249052017678597
Bi 16.918402584137816 13.09345598194102 11.419777866414583
Bi 9.392173303290447 10.387407866210019 12.107351169994613
Bi 10.444907507964286 13.613559311882256 12.768147902080822
Bi 12.36119928354103 15.946174977596892 13.71335699565791
Bi 16.091683607210676 10.740708349880872 9.53324347304494
Bi 14.35169358283411 14.95706102892691 9.251528432641338
Bi 13.098459364138396 10.340409376975279 13.847163908330666
Bi 11.300238392447815 16.276906498313085 10.722189025292222
Bi 15.3506890316336 13.612132566965727 14.007636130463831
Bi 12.222170683498481 13.536830940907382 7.699655484832499
Bi 12.035960903707236 10.10511641426114 10.36354617373359
Bi 16.046824923657912 12.91356110598152 7.445968688253595
