22
Energy = -80.16645239 eV
Bi 13.77385125436993 6.398929530384175 13.46697366711471
Bi 11.37782324665456 7.269731024098849 15.10062923004982
Bi 14.16017948673253 7.24361249488134 16.343414560200184
Bi 14.721611387108204 8.761744636925824 11.795722887227225
Bi 11.554829851936129 10.323670225651451 14.82208271950198
Bi 14.321567255973962 10.293617525216174 16.094924220215812
Bi 11.953384109661053 9.995706134321923 11.88215321196531
Bi 16.371406465549164 10.110208107478806 13.914599552405335
Bi 11.530730348509696 13.066480006668657 11.574593513894058
Bi 15.36885768405727 12.485199373919965 12.254126848908273
Bi 17.73792407474686 12.82105196343991 10.378237020073348
Bi 9.49496694326667 14.901841148106456 14.134379823150331
Bi 13.227766953395523 14.574662928031877 9.533764048894335
Bi 12.375026599698673 14.024843822597866 14.352316679494729
Bi 17.317638287441827 14.805443099608153 12.61140092871859
Bi 9.581249244759114 16.51876788739674 11.546374530957706
Bi 12.46402595546616 17.178349149627806 10.931037644775406
Bi 16.17178646852125 15.363996079716577 9.86624865489819
Bi 13.744059621682537 16.627567298711636 13.593445671255113
Bi 9.456110382591309 17.434253058314923 15.837524456459118
Bi 9.521033261877099 19.065339540620695 13.25364164865479
Bi 12.023736219341076 18.737946506191577 14.953363946880877
