23
Energy = -81.91127414 eV
Bi 16.236892362774793 12.083964706460993 16.24949438885996
Bi 14.266990111312051 12.039887506628473 9.871625013494038
Bi 15.924847082866075 13.773854348268884 11.769014952930137
Bi 16.02631688001561 11.18522607823431 13.383469701117404
Bi 14.969432974132598 12.492519368500545 6.935236922980481
Bi 13.434226156704497 11.15222011754649 15.302669285120917
Bi 11.909537056563249 9.58705675667734 8.783175345170374
Bi 14.987583760983297 14.776360756083202 15.467746237326638
Bi 12.851421305368646 14.190069687575246 8.246568700929169
Bi 11.758702370746688 9.840424245650006 12.334939174380972
Bi 13.108062860606035 13.65390013534099 13.037804142789613
Bi 12.902938564081454 15.578873121136526 17.380689736906636
Bi 12.012683942203108 11.77916017410322 6.57547876259424
Bi 12.06978591331988 8.321224434458243 14.978580152874118
Bi 10.528584101505617 14.568006262112377 11.183432153116389
Bi 11.551451809019142 15.893975405050512 14.605964954009595
Bi 9.895833267280155 7.482895576283826 11.394918270212747
Bi 10.037943114511629 10.533875207496589 14.951062862747532
Bi 9.578782754256157 11.395224234285282 9.541645626483431
Bi 9.184133600432816 16.792912156233218 12.63394644636938
Bi 9.0988680272963 8.505728526270735 8.580300651037549
Bi 9.21575538770364 14.041272173763772 13.876267158113453
Bi 8.530826907854102 10.024469415873568 12.216650732506414
