26
Energy = -94.40072059 eV
Bi 15.151327859100288 14.36972320410872 9.879711837322121
Bi 17.62403034014956 12.015610574299414 12.754077565081278
Bi 15.116028369713232 11.668159198688608 8.479248313257115
Bi 17.038612456863248 12.398216298522728 15.716498805419256
Bi 12.73574351335531 13.503801723505475 8.228179400204098
Bi 14.598255720966325 14.14567756273402 14.932244679761009
Bi 17.18897500716815 9.088377334753817 12.16852423988445
Bi 14.67896994322125 12.540311979158183 12.247087783248553
Bi 10.672913715239709 16.820003854365453 10.233465625648046
Bi 15.169519899840815 10.124882847396918 16.490465192715064
Bi 14.740713813160214 9.197426378187012 10.282909580200595
Bi 10.04272617258342 17.80264505802116 13.03410766293227
Bi 15.18435347810076 8.11200845959667 14.251645580231902
Bi 12.774323884709997 11.988353423463389 16.145024831675766
Bi 10.717715631349664 12.78232373267382 10.421092021001884
Bi 11.905753525538923 15.41950651940419 12.685985837904996
Bi 11.675571077800189 11.328760596726104 13.361610736049123
Bi 8.64650450096312 14.746779105661647 9.354044604365507
Bi 9.187933870586226 15.071309831641939 14.035352722643617
Bi 12.691666032963338 8.615260183343992 12.510248138968805
Bi 9.85331013905002 10.17447338906423 9.092405142257512
Bi 7.099611405861999 14.5991770484298 11.915118855963518
Bi 8.934461619853414 10.066647954440107 13.918702096432554
Bi 9.111417837916818 8.342791247522586 11.39638602104247
Bi 6.692022641800472 11.6225302853996 12.555562412576988
Bi 6.964314565739179 10.04498363233691 9.969601729524472
