28
Energy = -100.76595533 eV
Bi 12.367813051339532 15.273162969716662 16.818547457032363
Bi 8.887721872888882 12.840571383606836 16.4127331390303
Bi 10.739827389352296 16.15320096093254 14.460524548341725
Bi 11.463051190785702 13.157110449159866 14.766199012964368
Bi 13.74053238189799 16.480023492756274 14.396505609674758
Bi 8.411958328337349 10.084539107496797 17.61616837718976
Bi 6.9520434794821355 10.873889939865073 15.124876261331668
Bi 9.526330946945752 11.907049253443471 8.716433901498167
Bi 12.165577692419438 14.7604074775068 10.756020141849515
Bi 14.341593094100658 13.891563938633588 12.728015516473134
Bi 14.28306470267015 16.899502658319683 10.050135137149613
Bi 11.525301482142394 9.74194376891793 14.32922867121037
Bi 11.108956794802213 11.439614551797495 11.523403889796214
Bi 8.858867054378962 8.474021969176517 15.044545872790705
Bi 8.46247821046201 8.780880383905213 11.428830710050756
Bi 10.763806041697563 14.104346908106704 6.981500259747624
Bi 14.704783654785787 10.498897288517966 12.826368031570711
Bi 13.645746521124744 14.596591147330388 8.090501718732252
Bi 16.596957155228303 15.209565345465558 11.1269427160323
Bi 9.778394815965454 6.438996393344469 9.930317856926727
Bi 11.898927582795723 11.309356700633739 7.02357882348651
Bi 13.882781916845618 11.579537439293436 9.62110272761298
Bi 12.076847231179018 8.566900362216195 11.556693709307757
Bi 16.703942192002348 12.84306090270774 9.170775171699848
Bi 17.362746327244363 10.754010586557962 11.30154777104483
Bi 6.77364502233554 6.55820486346377 10.15851136861904
Bi 8.281776882910417 8.534019120420096 8.378622746720497
Bi 15.21993139958444 8.786841697560162 10.301995617654821
