21
Energy = -75.90985389 eV
Bi 7.361957586681488 9.938188400934232 14.065380047742671
Bi 7.572551620788286 10.960738284395973 11.19867954680032
Bi 8.329383213402025 8.089339462030134 11.82812216120883
Bi 7.775430703313291 15.44622220444046 12.498018284648296
Bi 9.629537222563279 13.344913328350518 14.340401230230801
Bi 9.526025433423865 15.025205544782924 10.106419753717878
Bi 10.21654310521103 10.414290099286095 15.056468485871205
Bi 10.290617042693905 12.332874747735183 11.378740162306027
Bi 11.115677959705152 8.275624915956682 13.016486217035428
Bi 12.074870100562757 15.026218594237925 14.353565974992279
Bi 12.554964619535859 8.487779030946019 10.358474370056681
Bi 10.471812266333108 16.794724426984583 12.401032608497447
Bi 11.609571094158595 10.961947851543911 8.847551371214667
Bi 13.483791325346756 13.559036922050767 11.965359014244289
Bi 14.242554948511833 11.158980333169275 13.666173373957855
Bi 15.221278174687479 9.187280374703047 11.626682940915876
Bi 13.87446997901993 12.833046189571823 8.909325580340715
Bi 16.237376208052996 14.848610008277516 12.431403260839705
Bi 17.04437840120635 12.356866980377061 14.0338977479124
Bi 16.183136522326517 10.975801027237793 9.416513339577946
Bi 17.9606382205137 12.720887071663086 11.171818538058359
