27
Energy = -98.25797967 eV
Bi 12.259230067393831 12.515957241236478 6.639998464758576
Bi 14.473168269845008 10.64910181070672 7.551724388224203
Bi 12.853069844457478 8.207011392985207 8.244351770867759
Bi 12.684404866917385 14.744107066236573 8.65785757236651
Bi 10.366919500770694 12.887287139647034 8.986347936476957
Bi 11.263974517734075 8.881138923043249 10.744060060882424
Bi 13.932633390119836 7.487369339369322 10.980976935149082
Bi 14.79041120353786 12.099773338586248 10.174749444741957
Bi 12.539293531975757 15.397404867578377 12.26144230404939
Bi 13.383176846177767 18.053122060056484 10.993858687073129
Bi 11.993023413773294 11.77298659493178 11.32299193733088
Bi 15.88577201719804 9.68908652618333 11.708710101644115
Bi 15.621719370541458 12.802104421041548 15.105752741146448
Bi 11.834547044903077 9.262584916849177 14.413813948941241
Bi 12.392381669193632 19.573186385186293 13.468387818136094
Bi 15.42342633850031 14.700258428181641 12.744226846503684
Bi 11.53259488487905 16.928496940988953 14.731394403744291
Bi 9.91195860533328 11.579533314411098 14.204457219548338
Bi 15.34766146660231 19.166870985006685 13.030020590642616
Bi 10.6967780245642 13.650854521838781 16.29432616091622
Bi 14.801114344373385 9.937143790265315 14.550315030225159
Bi 13.594143972152729 13.747310298330861 17.156081178389144
Bi 16.19060456706406 16.82117175759439 14.755679058896197
Bi 13.835986224666444 16.77080391496327 16.637371424060927
Bi 8.597480975636852 9.964434892792314 16.548011612157083
Bi 11.326789037896432 8.95577947474212 17.41212928886759
Bi 10.290399856322631 11.586604517424568 18.488262635200616
