23
Energy = -83.46198141 eV
Bi 14.085398963221918 7.2199306788252775 10.243865070109102
Bi 12.282478530843655 7.412376455566739 12.722990062264888
Bi 14.952246670285957 10.00576345440411 9.537927914876915
Bi 14.112719777715592 9.358308692560522 14.109745734305049
Bi 13.581139730878375 11.4047776112281 11.927723546580332
Bi 10.556156858749375 9.78535992609066 11.74565977472722
Bi 12.60971612974761 10.70115958727001 7.377263072109131
Bi 11.97879451286351 10.625938143672935 15.927257075964134
Bi 11.462841735572693 8.355690604744035 8.913503623189763
Bi 14.91949421656938 13.627292912874562 13.577311042101286
Bi 11.391033579090118 12.57185475457374 9.594363947437003
Bi 9.302645966648155 9.867925413373323 14.600823573787125
Bi 8.431115424208171 8.208831213697609 7.964542625620229
Bi 12.423692338000707 13.620130393673849 15.325212198531114
Bi 9.29559908537563 10.792528037235906 6.804043266713732
Bi 8.493062195532245 12.994221377172899 8.694941871417246
Bi 10.763683731174048 13.364528723573555 12.797857542987138
Bi 7.80335355766528 8.734767871881669 10.898923102230293
Bi 14.055798908214292 16.06117530670106 11.899773344799378
Bi 12.414632658859652 15.507190180036622 9.411785887240521
Bi 8.000859409532183 12.5018247029134 13.750525260205155
Bi 6.926755799332986 11.635809662144798 10.952293404359603
Bi 11.03962117417476 16.325999259398028 12.020580219942634
