35
Energy = -127.07912566 eV
Bi 7.071649996582242 11.45789491419191 11.410606027104697
Bi 7.5901463333582075 13.378430284244283 13.70761828562014
Bi 10.380592374985692 12.629401709433427 14.6995649915012
Bi 10.876574205090293 7.532141039507176 9.948450420237483
Bi 11.290030273261705 10.496949642643056 6.196072960457793
Bi 9.095409976955347 11.817191818339406 7.85837470591377
Bi 8.712467761960507 13.97222073601586 10.954138657170315
Bi 9.25902821862069 9.26592913956887 12.015776839050002
Bi 13.015052303764412 7.284662488079017 12.130231031561264
Bi 12.402176966124788 16.128628577047024 14.564249383871319
Bi 10.086461557145538 15.20993668534704 16.330046905294335
Bi 11.402527779412393 16.242998974147056 10.281625172492722
Bi 10.74556148045129 11.414030911770299 10.36428091238483
Bi 12.142227175297709 8.616670565511022 16.79041475135968
Bi 11.90469956658593 18.263111226946105 12.445232170118846
Bi 12.771237749847403 9.490423135147763 8.689745059962727
Bi 12.826768405195155 14.029479404371669 11.853861785797077
Bi 14.07914410642926 12.749344464946002 15.24353327062131
Bi 11.500176022456202 13.442261608132362 6.9225873275107475
Bi 14.257184081539798 10.081609826720781 11.907212829215474
Bi 11.899643220161291 9.572386364109253 13.891161895127297
Bi 12.223547922520156 15.299952605981257 18.570603440891077
Bi 13.174517406832905 11.274439288316357 17.820981493992473
Bi 13.789714300352637 13.092175590513534 8.992922192963423
Bi 13.833791144885721 17.348153943774957 16.983053269334608
Bi 14.444664205420413 16.063331676957393 8.749539623354009
Bi 14.64479661542961 16.698036463718065 11.762909916149168
Bi 16.61836080259645 11.080457081591943 15.898258761437718
Bi 16.412474777840803 8.94446064650465 13.757898350782485
Bi 15.001718017700998 14.60915507717237 17.52873210783501
Bi 16.316202071992628 13.26058021934359 12.39155041523818
Bi 18.39512704923641 11.238358880141872 13.439681972435162
Bi 17.670325855930546 15.956536833082428 12.404642205248486
Bi 17.199887336939742 14.678344457255344 9.764248457080768
Bi 10.216654753845464 10.935723139972737 17.30863357578376
