39
Energy = -140.80930644 eV
Bi 18.899405336059687 15.771281498592282 15.761280370245297
Bi 17.379630300407538 15.158379021463622 18.247468896523937
Bi 17.296310959251375 13.181841738238917 15.84816534721925
Bi 16.119969076560846 17.0485972370152 16.06905826246339
Bi 18.586609724633902 10.815247544675971 13.180308700276424
Bi 9.855118587353932 19.071079459057543 15.26645438022183
Bi 12.140570849408519 16.189876615039196 19.127940634177826
Bi 17.19898620533584 14.12063128987864 12.090209363555399
Bi 13.792810761200379 13.978252305414838 17.654177473222852
Bi 16.139198152930565 9.514884902749788 14.327596217033252
Bi 15.31642435279184 15.95496186645345 10.482287837023453
Bi 14.726600436452538 14.670011617796844 14.77555909103602
Bi 13.987663346653695 18.034537701396992 13.346790183381337
Bi 18.580998850522075 7.767792815010814 13.386862305009796
Bi 10.435502657182777 13.69652917507042 19.555196757022333
Bi 17.895181042139715 10.148533714787387 9.888450796376567
Bi 15.594435685242996 11.45760702823028 11.52387594702713
Bi 9.303685771763643 15.972276752207677 17.916279367777907
Bi 12.102340042830988 20.460686452841824 13.709105217260785
Bi 11.414635683502867 12.20635526580824 16.952524507595456
Bi 17.490672593263746 7.2629467135439505 10.639985453898348
Bi 12.187437319076267 17.049844084479563 15.850807741380757
Bi 9.784159408033906 19.168139594292953 12.244945923484261
Bi 15.787388324542864 9.619909755161084 7.562191845232241
Bi 13.311290725248256 11.398164375546136 14.329591830404766
Bi 16.912699499113604 13.673326228650081 9.102835115855235
Bi 11.25243509881918 12.856101210739684 12.267602076233695
Bi 12.564633590916124 14.865266669404873 10.00914381649689
Bi 11.467283343580604 16.558052477459345 12.330232226095308
Bi 14.685985898426372 8.126053228369694 11.841359401031793
Bi 10.272878089787511 14.640819752547628 15.255889020817678
Bi 13.395257917362496 9.207229465455566 9.299633860333417
Bi 14.223798039255927 12.098319020351756 8.501738538981124
Bi 9.124751836092301 11.169376135185582 14.127809195942492
Bi 8.715849951743586 14.391533923206152 10.972181289469983
Bi 7.812208560585131 15.69047030183583 13.495950477241573
Bi 11.985808014635737 8.819833181644118 13.542835090620002
Bi 10.156027490191615 10.11494408457486 11.472918293005826
Bi 6.893884414494228 12.860833733215419 12.83328508641841
