33
Energy = -119.84976684 eV
Bi 17.707910224202863 12.151622530446197 12.289277616612665
Bi 15.39815790759495 13.550277567510062 9.33994625924553
Bi 18.501476680555083 11.796830159774881 15.259149379757327
Bi 12.832780534574507 17.580382081303288 12.253862402344852
Bi 16.693930842583228 15.002271892274692 13.002475106962372
Bi 16.8937368175956 14.31021464557475 15.963162738373036
Bi 11.339636568372182 17.749514881616843 14.895999617952114
Bi 16.000976860474214 10.533522021042936 9.31075977260101
Bi 14.943566348615917 11.937377335926282 6.868151376198308
Bi 13.52720873747169 15.878808401423411 16.0415548895763
Bi 14.833681250677213 11.350304468811641 12.985662551770721
Bi 11.367999873865147 15.904330796628662 8.231378622990166
Bi 12.343417044935979 13.336840285057882 9.57062234669411
Bi 15.571650949237938 11.549077553097886 15.980658906211248
Bi 9.30451263173145 15.427369088116366 14.806683335444935
Bi 13.619037704816082 14.741719171506299 13.210851326997206
Bi 14.508794574443584 8.392554724235547 13.79970399885
Bi 13.241232444351319 9.230624161077342 9.173203993549171
Bi 11.579306807460684 11.888078716207914 14.736828029241103
Bi 10.203169368885009 16.882411349456756 10.87599482226297
Bi 11.050881577370946 11.748668953449661 7.280714877623923
Bi 9.004210099163659 14.11610342667778 7.532065171275435
Bi 11.585796534717314 10.435294419409313 11.436235005029602
Bi 11.183355404085077 14.053317133634422 16.86112481109202
Bi 10.236173938607747 14.09750460891308 12.09094954168642
Bi 12.472175521851998 7.561468975234706 11.658669206982335
Bi 7.973203394746181 13.062945530277867 10.232933679226052
Bi 12.569980514581532 9.311197625876767 16.048102476154764
Bi 9.273642123297638 10.357613945440526 9.425257167315731
Bi 8.580657413506701 11.542210867704714 15.059171245860384
Bi 8.397460815908799 9.069486749022548 13.309007876610405
Bi 10.351450936391307 7.505778406538433 15.037488356049176
Bi 7.941219755828104 8.847136297832042 16.315515604163306
