30
Energy = -108.02381288 eV
Bi 13.220872297761865 8.959068976333931 9.296708742007088
Bi 14.79080729636796 8.367327579592216 13.267836381513165
Bi 10.150802835839722 8.624169321994003 9.278590288307031
Bi 12.36092873871525 6.68730769093175 12.441965399857981
Bi 11.419583462741771 6.6422437393674345 15.385426349913539
Bi 13.863625499266274 10.815596249553115 11.689475105589118
Bi 17.79238160019029 12.87142169954411 9.772373029194616
Bi 12.602072696232096 11.216292553785706 7.285254049948391
Bi 16.79978024492367 10.165860425401586 10.762628787587044
Bi 16.00901873383027 13.580447715996993 12.084980426581131
Bi 13.701691379806412 8.564184470431327 16.131728435881044
Bi 9.604310826777162 11.282339019643898 7.850520905132734
Bi 10.652337540984204 9.188160291469 12.232522839498504
Bi 8.865251231841388 8.0959517407389 14.526489693293007
Bi 13.07322630815369 15.06443644806352 11.225098861841314
Bi 11.647151753345133 10.595190752894608 16.9997208676612
Bi 18.562604762460182 11.908211953232282 12.519397182028918
Bi 15.622698802748005 16.66512324523982 11.685634801282024
Bi 12.244709143378183 14.020545060635976 8.464153400756285
Bi 9.719202419365764 11.060297772450605 14.779996057478844
Bi 12.062368857233498 13.56145684981898 17.723463329890595
Bi 14.00757466709905 17.7033855416415 14.056399869335783
Bi 11.785483722715721 17.447525346985987 9.903312636612142
Bi 9.941407196573103 13.292199547908158 10.263954896942689
Bi 9.282721330083424 13.719367272149828 16.56911070006404
Bi 11.361850664977474 18.57599199970995 12.739068837351278
Bi 8.948502956491005 16.205421354924688 10.037675484018633
Bi 12.10479488166494 16.00096551152224 15.784358101305136
Bi 10.773439450610473 14.161808964920242 13.844827966306555
Bi 9.048740446439416 16.54258711312838 13.092090476723737
