37
Energy = -133.85116621 eV
Bi 17.490686561021242 12.394393252981807 9.507396455800798
Bi 17.919915940910883 12.118842988715619 13.106914007784416
Bi 15.304211274205766 11.768193735826708 11.464607939593705
Bi 19.009328088960284 14.448416874587233 11.3358360890967
Bi 16.346793408588024 15.933509007601973 10.083097101168873
Bi 11.259682117951211 9.20265146029844 9.078247531398878
Bi 14.926907439485415 13.823391850167752 8.415983924212004
Bi 11.778665826074686 7.915500794093256 12.643575403042473
Bi 17.953452600452966 14.930387223816547 14.230512062654874
Bi 15.18705952953283 16.160471117694904 14.375436939431525
Bi 17.937416298679697 11.460161478434841 16.518971311649338
Bi 14.186467010311317 14.775334953278646 11.770072335266306
Bi 12.54651621774199 10.66208248435183 15.407623289502462
Bi 9.686075563273382 7.074199108972786 10.61844668932386
Bi 13.871110249202268 16.549764090137774 7.1280467101983875
Bi 13.504740405561394 17.637765899268988 9.903839667933704
Bi 18.014521434821756 9.877221801797285 19.156114873981032
Bi 14.430359660944609 13.628320219424413 15.9047468736955
Bi 11.524454691256116 12.913245760992382 8.951490950858929
Bi 16.82048787083676 14.024479673880483 17.738915257260135
Bi 11.297619246245688 15.954384976856943 8.617536951437073
Bi 11.682205449555475 10.948448695705647 11.599482303065406
Bi 11.12668513921618 13.998329388416748 13.81133712027852
Bi 8.45233973519821 10.230824046755497 8.37582475940082
Bi 7.4236353045377514 9.071965670533386 11.019382982216381
Bi 15.52068024189162 9.782414246896442 17.38916801967973
Bi 9.998011448733068 9.23121241177023 14.626317070882862
Bi 8.625281242221964 13.00652290140647 9.579023903874313
Bi 8.469186028923293 15.088324668963283 12.639227388168193
Bi 11.560351698188919 17.02134868446912 14.230408387967406
Bi 15.720606288866135 11.811357023799932 19.63426377581606
Bi 9.856792637151562 17.691600093351422 11.807326129078511
Bi 8.789805850089982 11.364218571568692 12.500984118424249
Bi 11.135260995865998 11.681350944599947 17.881953600396407
Bi 9.86557985082814 14.12722523113077 16.558681479198686
Bi 8.54771784953377 17.509544119260184 14.545113387349943
Bi 12.478341350713384 14.431547095765202 18.093045756485107
