32
Energy = -115.58777096 eV
Bi 6.623660927784793 9.215549467620363 14.027294903315317
Bi 9.079681849408132 9.169123711707455 12.257378308037657
Bi 12.591965039532848 7.004964914892437 12.924583397611649
Bi 6.706693461349057 11.108752741014275 11.625087801010562
Bi 11.664435515998209 10.290234092483681 10.155188634439662
Bi 12.965781359493784 7.539083668520829 9.995313289755837
Bi 15.781038224163613 7.199151295435355 13.916889238533011
Bi 14.619150146338425 9.20616412036651 15.957198958046073
Bi 9.127140330769961 10.022658723220873 8.49520275188469
Bi 9.144654393244604 10.839423075560893 14.842230240594136
Bi 7.26623287381087 13.083261711013328 13.920705064228477
Bi 10.747508007745257 11.152832436595956 6.072954254561681
Bi 12.755395496704462 10.00973740934833 13.621846089344288
Bi 15.074170800556912 9.233720365576007 11.714571322384622
Bi 10.499472684218084 13.174660849167683 11.911584237063819
Bi 13.161021191206355 11.634910140360958 7.834060103274785
Bi 8.836397358624314 12.960934859873438 9.338716806632968
Bi 11.130400953508854 14.101392144066235 15.619293518513919
Bi 17.28961336004795 9.95970013539678 14.736484903459194
Bi 8.54114778800058 15.478407430194013 12.409135710806433
Bi 11.119025915051719 13.844193455089023 7.450480826071795
Bi 13.878682632402137 12.737032040328126 15.860725736193086
Bi 14.405958330642783 13.32120277040242 12.78796204332617
Bi 16.99235995245769 11.71940320951823 12.360482459359531
Bi 16.41821858937599 15.076028803018602 14.244541946761933
Bi 11.58524324840542 15.803631727936418 10.848886276561464
Bi 13.491130962741583 15.500385534767922 16.960046856426644
Bi 11.26176661077677 16.52527774620293 13.772885401241126
Bi 14.617684304293523 15.219294889386944 9.991757873750464
Bi 17.111006301513576 16.202045497983438 11.444981190661439
Bi 14.613449956989188 17.8490759809605 11.510310504630223
Bi 14.502820257066537 17.382278809323907 14.676460913584663
