30
Energy = -109.48188736 eV
Bi 13.64131791753075 8.203609222944609 8.930681020026272
Bi 16.267608011811873 9.649785899024694 9.38486323390642
Bi 15.750841750693038 9.41226538441408 12.46943279215631
Bi 12.77953248111532 9.34048979184087 11.6836910443261
Bi 13.681358256983449 12.608502544525637 6.647196477266977
Bi 11.650902969741852 6.613153034545391 12.586430628243273
Bi 12.188635714835728 10.001219181348066 6.91481016580365
Bi 14.987157884537542 12.341644270831845 12.952525564288813
Bi 14.636958156690138 12.173136777659169 9.496822468538683
Bi 16.20120895976291 13.538444245437713 15.472859849201752
Bi 15.352669123334522 16.212256217566757 11.378800183676946
Bi 13.131937374159815 10.220849974701999 15.19749378825654
Bi 16.901079318848968 13.663533191682875 10.875883180154846
Bi 8.73269258968455 7.258112189853435 12.022187703253094
Bi 10.942955513201863 12.551959746787515 8.031082269798935
Bi 9.32928208645984 10.181550013528518 11.25343686061509
Bi 12.009261328545154 13.945792129726682 14.52072928136584
Bi 9.839940380822814 7.509416431058127 14.847219388834636
Bi 10.262319905494724 10.454881664088372 14.258207567193148
Bi 11.494710102077212 12.916003583179823 11.094295558715494
Bi 15.599038662529088 16.354868284687004 14.434594266783964
Bi 13.571435215818605 12.73053838221445 16.837313567254505
Bi 7.054313471836805 11.986214604152144 12.351166978984445
Bi 12.526815831044132 15.725080307616617 10.417123963784729
Bi 7.852469176683629 12.047864454550032 15.293288231600055
Bi 9.316157998588912 14.662556138890794 15.736882849608003
Bi 8.638651154742442 14.166232528404144 10.97116269575109
Bi 12.69457087588039 16.78867446651086 15.200092027808175
Bi 11.36841744223696 17.547105571317424 12.55853529502854
Bi 8.652130364072208 16.20805071665994 13.189288388098674
