34
Energy = -122.93098122 eV
Bi 9.876804325688257 11.302647503565861 10.19397731646843
Bi 11.234729262940528 10.906364053729192 14.373651590313242
Bi 10.35530632261768 15.651280344038387 12.148034042542212
Bi 14.111300379531205 19.716034053759905 14.888250276577866
Bi 17.461218224888103 9.413953617487689 16.979886206586407
Bi 9.132230177529676 14.973340858003144 15.016943980101892
Bi 15.900075416477376 12.106164780016968 9.059324718690737
Bi 7.596826902968449 15.078279533530667 10.99229740425771
Bi 12.710464224959747 12.360626329463344 12.076944228652568
Bi 19.185664683113732 12.569949711643332 14.891367860640955
Bi 13.102520412902644 15.492394222731782 14.616677321957967
Bi 12.310751718336498 18.047873836510263 11.11897688572927
Bi 14.687280609379041 17.575759301790622 12.809172466055303
Bi 13.75423775850593 10.402807818156765 18.409649378125337
Bi 6.868200428492396 11.000271960389092 10.054207851741916
Bi 16.630410348820273 11.063099582948198 19.388377040269926
Bi 10.129127070159848 18.577697375577525 13.113832122486105
Bi 8.171622798199692 12.461765273301907 12.476912921762958
Bi 14.161619348686855 10.431933726899373 15.287459424051724
Bi 11.30919985199776 13.321153946345362 16.198406834120643
Bi 15.67998242148048 14.737919241926404 10.658586704706433
Bi 18.13413479133492 15.18030440641866 13.881068051955811
Bi 8.199772701193627 13.278724763516243 8.573999400223805
Bi 16.56055995679095 18.57767946766664 16.32687070858406
Bi 16.637091987321956 12.42115310247153 16.676508410761684
Bi 18.636210530108475 11.7365344224454 10.436226462836629
Bi 11.008231157960479 17.374565766230024 15.793936109774004
Bi 13.902161909932111 18.569055228137156 17.738587271502904
Bi 14.743394823017445 7.95822424454554 16.92360532493064
Bi 15.158900069331793 15.91230276407542 16.87615842999509
Bi 18.743840613505796 14.76755182428083 10.911701234192076
Bi 15.540920829183701 13.346927727126884 13.354612861590379
Bi 14.570747442288072 10.270081987238134 11.084310764881906
Bi 17.298751289103446 10.828871717725063 13.006481749932524
