33
Energy = -119.06984197 eV
Bi 13.0561222459063 17.142890313823795 17.67358975973968
Bi 17.69882216209751 10.324907939369755 12.919856200591141
Bi 14.927222282561655 18.476088948279138 19.653077847273668
Bi 14.605195169845445 14.880517528372794 16.39352659069534
Bi 17.50257070270904 15.751617837544197 16.7214208216118
Bi 16.64750300692404 11.76441407525932 19.32339699564889
Bi 10.99325580747067 14.308391721176207 16.029721283401027
Bi 14.936726414660068 11.586452632659725 10.359721517668959
Bi 14.191307896321414 14.535305527601498 9.800139576731484
Bi 17.288272183475662 12.106106416084828 16.27328281234507
Bi 13.081196801647529 19.038783852579048 13.594425962037096
Bi 19.488753062246627 10.191406129079777 15.390127525505545
Bi 14.423283007604166 12.49845783199978 7.453835848776891
Bi 12.727047691347764 11.93181433719355 14.40840937150636
Bi 16.143881543754436 12.971755684663291 13.20646215587425
Bi 17.25682465166057 12.402354938414012 8.522371177767543
Bi 9.346327087749748 13.27032154792455 13.688166312038314
Bi 16.195847265435685 14.354403278227743 20.82596093546586
Bi 8.19269704911163 15.646622480859568 16.845971238635542
Bi 16.431936178375004 17.060883886486128 12.925486831225859
Bi 10.063382946604289 17.05496510341451 14.922626414958486
Bi 14.316732321386164 18.33450904280536 11.000517346711261
Bi 17.431387743077014 16.82375453221436 19.541524569842174
Bi 13.523997090972639 16.119372854471916 13.051693244852062
Bi 17.234944355136708 18.51484102707915 15.539026150558565
Bi 18.35494852782612 14.7576353003818 12.139413281724226
Bi 17.128503935012056 15.34346587506829 9.413997863590803
Bi 7.434080575923757 15.817277403161196 13.995862827771875
Bi 16.653273754482598 9.20849210236189 15.539893523257968
Bi 10.40742982092724 10.344466985407045 13.396780594292046
Bi 14.05156567754821 13.296027055980899 18.98499660078925
Bi 11.592209649008357 12.580589404948814 11.70287943417837
Bi 14.642800491026657 19.531155504942138 16.73188648277005
