36
Energy = -130.95769418 eV
Bi 17.25393211352725 10.784352546612528 12.774212678261147
Bi 18.782841377736798 12.952125186690512 14.30603328056516
Bi 17.85631980959626 14.781392298947976 12.01461170209547
Bi 16.42390406003274 9.15968912072793 15.204363708011543
Bi 15.204040053728987 12.013518778272836 9.560692113154762
Bi 14.269826753945235 7.7681277512516695 11.220648050007235
Bi 15.31522594266745 13.151111121170551 12.438424105310183
Bi 14.273832665575812 7.237247800511598 14.203886560791474
Bi 13.44125518133936 14.037230055433819 8.127822943466754
Bi 12.876504121682709 10.409527014694998 10.649131918626958
Bi 16.407718864179653 13.510883480644672 16.117674445518873
Bi 16.85056307364452 17.154480234700785 13.666942461760778
Bi 14.158784120150436 15.825159788272375 10.47182393681803
Bi 17.384132505473417 16.348197556106758 16.562488600756122
Bi 14.252597234053942 10.751350771987868 16.70577183908043
Bi 11.651717749468899 6.590712555111064 10.162658648521893
Bi 12.107944962379525 8.842587561647361 8.138457466644429
Bi 13.901855968886661 16.38552562578386 14.038470108611516
Bi 12.461643989072407 18.928386611459366 13.099305902713539
Bi 12.062914063842722 8.920259401551196 15.459802575315459
Bi 14.534836409952412 17.475963226313752 16.889542794226784
Bi 10.589681948770481 14.273902116312021 9.24360462238602
Bi 9.070805186645666 7.973894612142876 11.122647318269811
Bi 13.456709330701399 14.637776473426474 16.67465976626665
Bi 9.085530404024826 9.285377473299858 8.344794702503986
Bi 9.894090006267385 10.748707535919387 12.218143077999319
Bi 11.112168925373505 14.51932320663818 12.235764715695788
Bi 12.496240999248586 18.23855991978091 10.159652749904268
Bi 12.592095054693562 11.69601182882579 14.313718663297957
Bi 8.590537339077903 11.975836094928333 9.734530487169849
Bi 10.02800588436102 17.353764858121217 12.142473236778304
Bi 10.381509880593459 15.090439518283363 16.822095809416734
Bi 8.555253348638596 16.393636697672267 14.80573816785591
Bi 8.025367284045187 14.233572017238506 12.787620071210103
Bi 7.941439521660508 11.717857422672205 14.438788610933301
Bi 10.275330005742783 12.08746997168598 16.33880453554212
