32
Energy = -115.45916234 eV
Bi 11.482237001561488 17.048806134200436 16.16017268267462
Bi 10.341377861386935 13.110884474460747 17.690371202567842
Bi 15.761335680413646 9.006275252989083 16.246312141002996
Bi 11.270522452539339 10.489264182288792 14.956349875060717
Bi 16.27715503434406 16.828984292059147 9.2964092693143
Bi 17.104585457537972 13.242806828823221 17.07506214739126
Bi 15.753333302579852 8.047634674833327 11.138989874728793
Bi 14.210532583955235 11.905083503641306 12.845912669015842
Bi 9.086442232490517 11.986023680294908 8.954748767891557
Bi 16.108743632750006 11.010919655274542 10.536410337809116
Bi 14.045161222117503 8.885913881957686 13.586382503905227
Bi 10.88437799882245 14.452880275747392 9.378450892621135
Bi 12.678577189956236 14.218722382642923 16.009295884914597
Bi 14.76893620083532 14.960084681210665 18.073913483817996
Bi 10.760683519528829 13.893296523833161 12.85896343626469
Bi 14.572161646895161 14.327027793380188 9.68754658307799
Bi 11.688134714923056 10.49643411372582 11.139437488374885
Bi 8.017209200426931 13.24940126532186 11.49056161497943
Bi 16.677560910843408 16.06395574807871 15.98228931993522
Bi 16.813627249970246 11.367225056927833 14.688259566973453
Bi 13.192392524903875 17.817060647966837 13.759482292949372
Bi 13.870334460294757 9.381393514488648 9.228596526673051
Bi 17.06860837442121 17.286162032190525 12.181254390042437
Bi 11.087407269378751 10.127445404838836 18.018994564692605
Bi 10.298828682029397 16.881258437796596 13.372952741103862
Bi 8.964539267598482 12.5384683167648 14.984731007191776
Bi 13.296693931691973 17.077228099793153 9.870435244542255
Bi 12.981834898417931 15.420126693542585 7.318665885080119
Bi 11.118571875487397 8.129372907393613 12.857281159539806
Bi 15.086408938335447 15.39773466866412 13.44411108245998
Bi 13.832007044827105 11.139395271147277 17.215221848851975
Bi 7.902531296426387 14.781004270875725 8.861863675877359
