34
Energy = -123.08137863 eV
Bi 14.28747629435181 19.782985264358103 15.119561024239944
Bi 16.80204973071696 12.787167721454384 11.464920463755412
Bi 10.206190632162379 13.997222648566604 18.14671689363809
Bi 15.704801202861262 15.615323746577838 13.134623711831958
Bi 10.537247776541482 16.468798707328567 10.74068061099067
Bi 13.51417118934113 9.352401367653954 12.334038191081804
Bi 9.382920438743774 16.735130479123086 13.57712378745973
Bi 12.451132610022777 18.646771267916915 13.086871542716892
Bi 18.520989950150568 15.956006165870763 11.723371782543435
Bi 17.25024808125072 14.821438832411951 9.189693934400985
Bi 13.200558205513037 12.672445966329217 9.752044121335496
Bi 18.109124260633365 12.203466474478558 16.818844314183508
Bi 15.312956778732982 10.4463474824024 10.05880387260924
Bi 19.664936748424186 9.919004668935818 15.539094875505045
Bi 7.5664263685733095 14.468230944073387 12.514471772514941
Bi 17.602305525919647 9.682169592318047 13.266128581582667
Bi 15.184669825397958 8.853268566138778 14.882210959679385
Bi 9.677018742402874 13.527965788738106 10.461934631248017
Bi 10.105948757375856 11.334626503972821 13.707000047888034
Bi 14.964809510363809 14.359986544276977 17.944987595844967
Bi 15.877137386782394 11.814635611159494 14.748079399268152
Bi 12.67723421625456 16.080532216916154 18.782898181080437
Bi 19.795382603691262 13.173848796086798 12.01158866891214
Bi 20.450131804444418 12.795645188634454 14.962986799760035
Bi 7.721612905960797 15.703918845772021 9.726473763816221
Bi 14.463959229587028 15.491494886362986 10.291107787754132
Bi 9.330581198028657 11.011891436678969 17.670659139871056
Bi 12.612860736124912 13.103172845789286 16.477086223739345
Bi 12.871795056263574 12.325428445068036 12.775983347124306
Bi 15.452041581630407 18.649675916441378 12.559567247267342
Bi 13.987175279331964 16.787761809643303 16.158190068030244
Bi 12.178894154272191 15.487969621491066 13.94683764395813
Bi 8.607465030247884 13.22350045782249 15.627283667746362
Bi 11.678103899190667 10.084805355889642 16.018564778680076
