38
Energy = -137.59269052 eV
Bi 8.99584205351959 15.055570976727859 16.85531112342798
Bi 12.827937695656303 17.118399741601415 17.262122551321145
Bi 10.535175466603459 14.879977218838897 14.109833731730882
Bi 13.179152458247284 17.307662548202032 14.218356762371107
Bi 9.008315337123234 16.788244816122624 12.201601315340998
Bi 10.731675431210364 13.91312540754368 19.041540896479155
Bi 15.812628592509537 17.890442181804612 17.46900435999883
Bi 9.48210841586382 12.090612308475214 16.20152976039055
Bi 10.289763314691735 18.411054903067164 8.519083274165025
Bi 11.224548848968078 18.77743809327463 11.428309242587881
Bi 8.618958567739618 12.869831111978973 12.772409542055653
Bi 14.841197669977625 14.760989965610078 14.215073985363741
Bi 13.485129380990001 14.241828970843393 17.89583013027818
Bi 15.50056889941399 19.271204249305505 14.751202254943985
Bi 10.410393028305263 10.273598479579439 13.565080096691581
Bi 12.820653356519433 13.880734792214785 11.194514990437817
Bi 9.943742605641692 15.513685487431243 9.592228841670217
Bi 11.636798128734677 10.802003984095109 18.04275806244507
Bi 10.793238310483579 8.465354916562935 16.095668802652135
Bi 12.51467679246238 12.33495479404326 15.49132568850936
Bi 17.868988956764564 17.5666227120055 13.806431361361499
Bi 17.173283914035196 15.558186853098677 16.025352077901562
Bi 16.339378022554868 11.311130798501381 14.825938917743757
Bi 12.717525919059947 16.925487277028363 9.517405565027733
Bi 14.725357059120018 11.54366786818798 12.199091266186008
Bi 16.139942678375746 16.058011547140456 11.765173386967534
Bi 10.660168809983569 11.815351741526836 10.613995425977615
Bi 13.679166339124327 8.80470211035688 15.23852937799614
Bi 11.418372868432868 11.933099567599848 7.5108228899835945
Bi 14.102528894452904 12.967678410154264 8.495534110087092
Bi 18.378332180819832 14.105280065044035 11.09411006668062
Bi 13.250784740836517 8.901594966597017 12.104575371732698
Bi 18.785801425256537 11.75289448304313 12.958649516145401
Bi 17.170190853695992 11.413175806679277 10.367433826450226
Bi 13.375965053528617 10.038038210338923 8.624603573629866
Bi 17.56701690465177 8.492119998025887 14.343402140324715
Bi 15.523475004214273 6.338424587999414 14.952133731624006
Bi 15.940406137317204 7.297008166233931 12.10322209820472
