30
Energy = -108.29715303 eV
Bi 19.749911766969515 16.477605292031807 2.041157680561934
Bi 20.827740346151213 13.703078240115365 1.4639286729471181
Bi 0.07589618097058685 19.73284261242989 20.699487195096822
Bi 18.847210778759024 13.255914277035282 20.187129582244875
Bi 0.1899989366486197 15.982844021376009 20.53266936386758
Bi 1.6330556054769025 17.020409267043146 2.6835100534776504
Bi 16.186996043492783 14.433902013596336 20.985968935114677
Bi 1.748697459009936 18.615768845716467 16.613334812588626
Bi 2.7708746784227887 18.164529896077656 21.027548248712858
Bi 16.238316562896827 14.30847391598898 17.911750500347843
Bi 20.47801913403388 16.57008515471688 16.77777632328783
Bi 1.8083000805120213 19.999879338729613 2.142941519822059
Bi 18.014812702761333 16.26590183491763 19.439715852548385
Bi 0.29233663328818676 17.67419333509815 14.10448784970849
Bi 0.9985495289428994 0.47720228790984326 16.64703236889504
Bi 18.87784142167491 18.81523261800125 15.523917352215637
Bi 15.10043746134906 17.091961423676402 17.148701342127666
Bi 1.5554709661674733 1.0658033448613622 19.572826193129906
Bi 16.6813841989766 16.885252091966546 14.567506044025428
Bi 18.926954321060816 0.8770130651816748 17.240588837433858
Bi 14.352359139930307 18.73689140135381 13.715849560096322
Bi 12.720535893514429 16.72021527966425 15.259713181311016
Bi 17.749081148156524 19.854438346725416 19.165475876311316
Bi 19.85348049949853 2.538477454827433 19.62431540187862
Bi 14.51099094119341 20.979828412282156 15.770380980559162
Bi 17.92948983241504 0.9446902212220173 0.3495474422024357
Bi 10.935261858751367 18.512418996154967 16.89625559874785
Bi 15.957572181297227 1.2122249781265242 19.12340633019001
Bi 11.508945355526015 0.321562957389571 16.128149422914642
Bi 13.167652758522992 20.18613292840289 18.36560212334865
