38
Energy = -135.12044831 eV
Bi 20.28440946810657 20.898133856846457 1.307695010587717
Bi 18.267098242563208 22.999315229361322 22.232609322338025
Bi 17.688609734498893 21.688536898074776 12.653114608005435
Bi 18.516858613388877 4.824869011722807 18.760290983507787
Bi 18.04013900876697 19.163972629063352 16.467690029187732
Bi 19.15695244433676 2.4008898706551056 22.580647139394614
Bi 21.79670604930979 16.5175186613467 17.968254691769225
Bi 22.361730516244425 17.944903643462144 0.16960892287634383
Bi 20.544240558773776 19.35475918785093 18.25484662874106
Bi 19.619465454793954 16.966284259648504 19.982929976131
Bi 2.8475255451575703 22.421387288706633 0.38999992770157005
Bi 18.797246483762635 0.7869534156691538 18.48543520305942
Bi 23.436072163891428 23.10675231880868 2.6963933492164864
Bi 16.8270475599605 3.429485035230989 20.874514805217196
Bi 18.788109771994716 20.02621986225335 22.930770610562924
Bi 0.9170486985165973 17.312006301553435 22.96335987082964
Bi 22.030266673440682 22.99605980150022 24.092364515246885
Bi 18.998509685013037 5.344074741831745 21.698780938720958
Bi 20.485346481475943 17.78807123829771 15.425177149938891
Bi 18.134975266006283 0.31822121275623766 11.857332072328493
Bi 20.731125718819257 2.927365244017412 17.5682686787919
Bi 1.215981606501962 20.681493261259256 2.243772089088618
Bi 19.234461294051147 23.80943520403613 0.9267765028286106
Bi 1.030849512336689 0.5308075475095206 0.7467208919707659
Bi 0.16234450475910375 20.24184882895127 23.54646158931517
Bi 22.587065599931147 0.5258555112869447 16.28818983889731
Bi 20.766216480179974 22.714306407945354 17.535020802474204
Bi 3.781750938334044 12.527589250894527 0.8838574257468097
Bi 20.62664493232204 0.28608290232061845 20.859731488813114
Bi 1.0267489631407056 13.834225488784087 0.9901085048408816
Bi 19.249441117920927 3.513604302561235 14.937450042669171
Bi 21.32919416543853 18.95917484134754 21.61767996952487
Bi 2.534068861324156 13.5518945647708 22.473085030611777
Bi 20.731818946446158 1.0811196295660852 13.778335544543136
Bi 2.1989824739598194 16.63659257701393 1.473217856576973
Bi 18.00318441664008 0.705547541128493 14.896513653358765
Bi 4.492317499175072 15.316208147094043 24.009581957405548
Bi 19.68378547887626 21.19306069072243 14.900990214639222
