31
Energy = -111.94534701 eV
Bi 21.934486545205097 16.141113560580603 13.980832220176593
Bi 9.724313110319288 14.486592040479648 11.694751332573365
Bi 14.423095688741647 13.817487513367949 11.588199573334098
Bi 15.281580808029672 13.76072291995408 15.102594773104116
Bi 15.263749403781686 16.53995224786655 10.741349827888062
Bi 12.885575512486792 8.880427907452583 17.15249209502482
Bi 11.28181232645627 16.94123857496203 10.335369506399369
Bi 13.101430239699646 17.918228911438938 12.59630981392264
Bi 13.467940639427818 12.82735233840635 17.49393106818646
Bi 19.86192636890479 16.430652060321442 16.193587522518005
Bi 12.519667725689626 11.795820255293155 13.681689511994144
Bi 17.8647563660084 16.465243107342758 12.37921739736693
Bi 17.410531982328706 17.822349344846383 15.044845005005232
Bi 21.063079775081604 13.894273945831518 12.147850881380089
Bi 14.126703390694797 9.190507554098412 14.40516412893881
Bi 8.700115309047755 17.63153833160528 11.807691348431206
Bi 12.378695740143964 15.507332866583488 18.693345063809172
Bi 19.04784323179897 13.503693754741908 15.90988850374981
Bi 18.13970783852692 13.491375412859234 12.99827081296447
Bi 15.193394603226704 10.351061663074416 18.396073891860297
Bi 10.970444067793354 11.418204476934225 16.367935855994237
Bi 13.330499711208658 17.27951056208872 16.42810675246991
Bi 10.258085691581456 18.34272135315497 14.286231610154866
Bi 10.672314104397127 11.524724976426816 11.247671042010133
Bi 9.933575061924472 14.23621023774447 17.529071449352116
Bi 9.330120107136953 15.53949588232837 14.785332285246598
Bi 22.014862053578106 13.247770057950202 14.943065027024158
Bi 12.096936916421656 13.714544592937896 9.633803577940498
Bi 15.989204476603907 16.049235825259423 17.075175127262476
Bi 16.438668783303697 10.80978905547374 15.648758031635433
Bi 12.491442068424888 15.267542093754471 14.010338604955137
