31
Energy = -112.80608955 eV
Bi 12.597815944318695 18.578354445363846 10.36332365356886
Bi 11.83597592863679 16.92844830831649 7.94213583270239
Bi 9.722464572036804 17.672866243782657 9.979806409956868
Bi 17.020059118615233 14.261892258985752 10.80225892557518
Bi 13.12077656943633 16.08204561889352 11.968553941407995
Bi 15.268502761443306 13.374759953257957 8.457689050453778
Bi 12.2489819209311 13.944705535468206 8.431777287804902
Bi 16.041118474472547 16.317606436904533 12.801109665015494
Bi 9.049148228684302 15.107153231309281 11.499341365319506
Bi 9.349692881162031 16.246387662456957 14.313048265834182
Bi 9.863201837912788 11.06930466978531 9.50040561816989
Bi 12.297118906836438 16.791487176833723 14.789982362791124
Bi 11.42496311496746 13.185193984065076 11.296026775677738
Bi 9.854531706706183 8.06050317275402 10.068800122663
Bi 14.960735712557094 12.088126894941306 11.221627843970422
Bi 17.542089181137747 10.703904882115031 11.967927288722514
Bi 15.990707096046025 14.418011115012009 15.251373457827956
Bi 7.413021551913969 9.784839575492366 10.696993700211992
Bi 8.88697047471118 13.718414873235858 16.005288994511986
Bi 13.015721447147426 13.833238941054985 14.810932354336154
Bi 12.552764873931903 9.654840096179056 12.102177950191026
Bi 16.84751476005437 11.505704115015826 14.819047819579783
Bi 16.995406743708386 7.733304115012061 12.570604744789026
Bi 9.995280550250504 11.562198368975531 14.10055556809916
Bi 10.41756134725608 7.714220513853516 13.088435648232236
Bi 13.912916091404846 10.314377219115404 14.86363704236565
Bi 7.931512532592457 9.396137692534456 13.700214447209145
Bi 14.096593688532115 6.952274830742065 12.176967147734917
Bi 11.535514093197826 13.249847494984946 17.43280225318835
Bi 11.198503502052272 10.322471813050939 16.60065538909452
Bi 15.171854577523321 7.504512528210402 14.972475041908169
