33
Energy = -120.50750362 eV
Bi 18.148886214863275 12.33665673787326 10.55403404618117
Bi 17.98205738211585 14.303928941773442 12.901806962645773
Bi 16.906463777043957 12.296929569827403 14.926526510494307
Bi 16.009294758503756 14.373489072112484 16.941133340926278
Bi 16.261403367835054 8.857150539559548 8.559032971256828
Bi 15.107165324907532 11.369973674159306 7.332307743387584
Bi 16.36418677880367 13.806621429891981 8.636767101575092
Bi 16.363585030278173 10.026583603779295 11.402235904057902
Bi 14.073724274973499 15.09383891836657 14.68820156175027
Bi 14.141468560279696 9.919917322605418 16.606477799406882
Bi 15.615033920627509 16.129387378661782 12.230659511678043
Bi 14.191347138068954 11.372073919071147 13.80176295142588
Bi 13.758398521081865 12.608509043964855 18.06336606846986
Bi 14.107406705569954 13.984130304615324 10.668997515641161
Bi 13.785723486266097 10.13431150088629 9.785007292463442
Bi 11.134278761957649 9.854215487903978 17.080758053993407
Bi 11.834172100952392 12.581112270527008 15.665647797086743
Bi 12.104031206920673 17.38978630093007 15.22852278011831
Bi 10.601764100771705 8.09546041752877 14.65052709082144
Bi 12.839934496387029 15.685479640495533 8.38670761879457
Bi 10.030506162250449 15.198979259694228 15.809460549745365
Bi 11.743037341174807 16.318044658298202 12.357147050309319
Bi 10.984082278574007 10.381995184788103 12.6166470518688
Bi 8.364885655539949 11.355954422626349 13.887988445402604
Bi 11.24185935726666 17.858374419206772 9.773261026383265
Bi 7.554993219832137 7.357061869522272 11.573684657154157
Bi 7.561485919101397 8.482960020906427 14.390502200678203
Bi 9.817056398854291 15.389324747932598 8.725600060617086
Bi 10.024797213353182 8.606267832231635 10.325373243760872
Bi 8.892646757795415 15.613184061857257 12.985617123550728
Bi 9.795234369440742 13.38971345166224 11.106062616956605
Bi 6.977060264114755 12.229008604605106 11.333462149096405
Bi 7.29452573092651 9.704017310695694 9.676119549665106
