32
Energy = -116.89406616 eV
Bi 14.740481908927359 11.122788613339436 16.773365779540622
Bi 12.915248847131569 11.439059086317389 19.24887045086227
Bi 9.68634335726513 9.861003202593487 16.2499179835998
Bi 10.228444551807437 12.232260490657408 18.08702282749748
Bi 15.903566986713363 10.897331820311635 13.11613558628198
Bi 13.66810064421732 9.045283713822458 12.660720328112987
Bi 16.08062718730628 13.634117627447942 17.894283929654637
Bi 7.451831648198688 11.044398407683667 14.527100125824708
Bi 13.298080244323726 12.924502993836922 14.758085896200269
Bi 8.628166269345517 9.238486378095667 12.326813741375005
Bi 10.966491299142419 10.74888376520087 13.584731749065185
Bi 13.392526600588102 14.460270867669946 19.087466560970245
Bi 11.563215762802093 14.568112159911873 16.606055005842887
Bi 15.966926310831758 14.393941256895422 14.912470669602628
Bi 17.33573435945246 9.747073892803964 10.627775387298446
Bi 14.753835609443946 8.305103680806605 9.885696262641554
Bi 13.191136978726592 10.15204822203279 8.06538296861058
Bi 17.33584994612013 12.441146834587704 9.223567582970325
Bi 11.953547581890382 11.757907880779246 10.325844010197306
Bi 8.994680592589425 10.985195132834713 9.85072208540387
Bi 9.264153123615039 13.452853959989051 13.829341493087918
Bi 12.003359167020026 15.012946769942465 12.171692392103159
Bi 15.163853919574468 13.623300969119695 11.079906024204538
Bi 15.345767544977457 17.307641267008993 14.384209749814753
Bi 15.208522224504623 12.21998801587217 7.080079390908707
Bi 7.930365565591383 13.554946427165367 11.125174547260945
Bi 16.191614293684218 16.54929672170947 11.540451217040294
Bi 12.389804916571347 17.62775939237212 13.666310479420968
Bi 11.228356215034381 13.813427440320899 8.182895077710908
Bi 14.080643157705637 14.786223998151321 8.37998333628483
Bi 9.855089757496362 15.738660496740064 10.105743038501812
Bi 13.3868350383267 17.41724012490545 10.745385933034424
