39
Energy = -142.04784462 eV
Bi 18.583795482280053 15.312015371121873 11.454750228746827
Bi 14.312495219600043 18.346302462192035 12.505961476065012
Bi 16.918428108158132 15.041092801762227 15.111630860667347
Bi 15.239796067645472 14.706599229220632 8.883109642972162
Bi 17.21518418327377 12.82417294256021 10.364130181640192
Bi 18.204186341562536 12.936739554787263 13.33674836101744
Bi 12.435993977298075 17.201765257387244 14.667852652288833
Bi 12.31641014429479 17.489990595010195 10.336962140956535
Bi 15.635505646369394 15.605304221852236 12.407904805427634
Bi 13.986744734665328 12.86020249649552 6.779172689236515
Bi 14.730251160046382 13.544798075713986 16.705288236160094
Bi 15.207989449687904 8.317598328440145 12.039615224550758
Bi 12.59965312496226 14.110633372337674 14.576960536064307
Bi 15.888651869324205 10.999853449151443 15.492762882211837
Bi 15.055242175825045 8.441936136041852 8.964030808811716
Bi 12.647050204964847 14.48143466809989 10.475178782999155
Bi 12.336224043433749 9.064142080132687 12.675842161289687
Bi 10.192954427200954 17.149518701270203 12.566598140137646
Bi 14.562924418278099 11.231241931089428 12.738877226198293
Bi 13.664367263457388 11.109960532229806 9.217512394817492
Bi 12.128187356691427 8.708948979600088 8.092282114030484
Bi 9.652497426418556 14.095561036747942 12.546563304827059
Bi 10.509320900176887 14.986886487573408 16.71824132074256
Bi 11.277995340091643 14.0885070596962 7.732781766428825
Bi 10.375186118474623 11.083560846698356 14.874529968638523
Bi 7.986613608939257 13.911509321718517 10.007499169835786
Bi 8.019112087544938 15.089392994721656 14.934305014908979
Bi 10.060474376736611 11.752523836828425 9.302536391472245
Bi 14.135255889209871 9.104785799947836 17.112683880337084
Bi 11.782488426623411 10.964208480456794 17.57205102596029
Bi 12.497928973484989 7.3921815941273135 15.216901122465076
Bi 8.050878142445404 7.590461692998274 8.018352592152247
Bi 10.248412481367234 7.518212257022384 10.1630548017446
Bi 8.511134766531258 12.677171803483427 16.721064929436793
Bi 7.756373075252951 10.63991777480348 7.634643821394416
Bi 6.542801038597475 11.020565502800679 10.37614380578343
Bi 8.564881577731855 9.334821114204939 11.974779445438767
Bi 10.028789872425376 8.624196213076495 16.6073509345038
Bi 6.356609776721284 7.732863599402511 10.52551521009308
