35
Energy = -128.02415691 eV
Bi 16.32427811472633 10.804091436033417 15.594755778744167
Bi 13.03401909861847 10.143670768996289 18.388595541831478
Bi 12.780709565255826 8.142295992136152 16.049512030369833
Bi 15.759626180828128 7.650938446678411 12.837752443867403
Bi 14.586787477839751 12.557738885015894 17.363734860670316
Bi 13.954544414744577 9.912277359632007 13.897006812735873
Bi 17.43348145237353 12.681660386894702 13.421974547559099
Bi 16.985460175837048 9.208835305563486 10.530690126562469
Bi 14.589734253934932 7.3949529918136845 10.053520186080476
Bi 10.52475655852928 11.287801863172167 16.985313162770428
Bi 11.107590697824895 6.991343353581249 12.515797579605785
Bi 12.396155417592539 13.025690161953023 15.254626821321116
Bi 9.8720829194889 8.415961948455356 14.909127082423028
Bi 10.225813140599454 14.319843192995666 16.940594671560678
Bi 16.33207509499375 15.486236446415436 13.869559080535707
Bi 15.51183374557429 11.801786415899873 11.20913425635489
Bi 16.70068094562893 13.715909945086326 9.188141996046465
Bi 16.06115506970953 16.138928193523256 10.903302859458757
Bi 10.10501627012711 11.031920862258486 13.33778319534045
Bi 12.199437688862886 9.287197429167344 10.762367824450912
Bi 13.646129636522451 15.004002770726153 12.388198660114108
Bi 9.475405850695532 7.970373435317059 10.135764044204395
Bi 12.150360980285855 12.711199983553954 10.475765914539146
Bi 8.347938156105611 13.302569019616852 14.72996810828235
Bi 13.830148558551844 13.706064396197057 8.068198862295167
Bi 7.765101749237033 10.075826046941476 11.56088157723387
Bi 9.717390228151904 14.447638407958232 12.224534307245937
Bi 12.622899070497924 17.5939850899347 11.115700722979433
Bi 10.30205139844498 12.301971013088135 8.09099877985342
Bi 12.748792768500282 16.535013930751735 8.224118804079437
Bi 9.654286189793387 17.482982744096013 11.836529150441786
Bi 7.505222526731956 11.983071304679592 9.17431088197118
Bi 7.033006003509808 14.458447346830658 10.859294801762188
Bi 10.120710961199679 15.282103217318472 7.35062688216567
Bi 8.2388126452686 16.757839708620644 9.2279783190507
