34
Energy = -122.81018295 eV
Bi 8.529963081822537 16.80918222423661 15.971796652932253
Bi 16.01193339922232 13.80574056587409 9.523678595785643
Bi 11.841704959091278 12.12802776126811 9.439350246880302
Bi 12.654848798234084 10.795024144680802 13.034037360904684
Bi 11.086867285552225 15.64337943118902 17.145903004884815
Bi 14.550484376748605 11.15333728656323 16.639372844563454
Bi 16.963552166214374 10.628863556433535 18.467032944247894
Bi 14.82578099394905 18.13081849813042 14.750907156730761
Bi 15.942712593888281 16.319527782985986 12.531079788208885
Bi 18.463901431380872 12.710849212738534 14.873127190528445
Bi 9.907987799395059 13.513889826119573 19.05066591947206
Bi 9.033361094443668 13.817143021021236 15.77577983556329
Bi 18.871727571432984 12.898147242940503 17.894159832882767
Bi 16.802036481658394 11.185440341015449 12.280409221480179
Bi 12.633809209498118 16.197468836036354 8.940573331903536
Bi 18.674313979219438 14.507400484607103 10.808680514158931
Bi 12.783722407065117 15.936824612139901 14.328841787306358
Bi 9.96947823526527 10.995638291784019 11.559799644296618
Bi 18.70788605971859 15.622083692788559 13.830327475618311
Bi 16.22483598009922 9.280230156342498 14.57881180133895
Bi 16.31471936528641 15.860641903373715 16.121089534257727
Bi 10.421242306972792 13.697749600185842 12.940461399443098
Bi 15.489419184036418 13.175180252036323 14.425959830463704
Bi 12.401922387434137 12.234060146147716 19.5931396794989
Bi 16.552976010899773 13.361807614567907 19.790620038202633
Bi 13.34551060346011 14.245988207502329 11.234942788767656
Bi 17.00042185711083 16.667362293470692 9.580898978826504
Bi 9.66041394735624 16.68694456555803 9.25026926045078
Bi 13.8945645722915 8.032522793747289 13.0151292673861
Bi 14.21808845726724 14.140028092506542 18.028759980820475
Bi 10.321145410030311 17.71112783580215 13.62118294877337
Bi 10.597522433232907 14.322333630243719 7.640678226618196
Bi 8.564497326802579 15.864477183021489 11.971508603455337
Bi 14.436424461487409 9.957373264708549 10.702977330046563
