37
Energy = -133.54292493 eV
Bi 15.457419433530898 11.858491455726899 7.184706947215316
Bi 13.583830975782794 14.301198494145918 6.947441074168079
Bi 14.345702386231164 16.585990529241336 8.84364736493671
Bi 13.421920745628825 10.110306721132156 8.73107104773975
Bi 11.503872877303976 12.18624986181719 7.636479831934
Bi 17.018744304030886 11.790402273483853 9.847356931391962
Bi 17.656346001943803 14.648457120218618 10.77252094466284
Bi 9.507958250179433 15.755748657085833 7.6983523279433035
Bi 14.388256530755875 11.42200282693169 11.327822464507712
Bi 14.750176067814389 15.040010388464099 11.450767783203517
Bi 11.586570662768535 15.940647068629518 9.909465625075198
Bi 8.97832348996151 13.140622725110283 9.133468189660778
Bi 11.00035910030683 7.110948137053871 12.075323527406203
Bi 15.5717168595511 9.01387928055446 12.782967807781448
Bi 17.989896222425536 13.06513770448651 13.331259085173235
Bi 9.280352391442511 17.918297530736783 9.837157835597921
Bi 15.063265599375736 17.869407286204183 12.55090106606777
Bi 11.962292989717842 6.048996087808364 14.72313195543403
Bi 15.489376589068533 11.166756021470068 15.011300560515382
Bi 12.709548793312319 8.857607373719217 13.896163302178044
Bi 17.74712304376363 12.231466863257399 16.81446577921314
Bi 9.180321188465134 7.25657400218202 14.496745136854758
Bi 7.991016612308784 16.542636662324146 12.26154742703732
Bi 9.039318703832484 13.710865346321022 12.112751899844538
Bi 17.046181201008864 14.933438362501368 15.537365514541525
Bi 13.998372132025457 14.50585597378905 15.206621037365059
Bi 11.230564625315887 12.091809831043276 14.4643645895434
Bi 12.117322646569045 18.338760981037684 13.089840035635953
Bi 10.561053409614837 15.841708504899161 13.830334454796535
Bi 14.04326529741548 17.600117733815015 15.389316889826818
Bi 14.982412025973195 9.453017825693406 17.532307635179084
Bi 8.787859208678254 10.276383842313024 14.954977862843588
Bi 15.684988758694983 11.954281121844334 19.007228915389234
Bi 10.042736963254548 13.78703564574133 16.718884948745654
Bi 13.174151441294772 13.806803412675203 18.091197917522184
Bi 12.242360948408127 11.016391621118451 17.22215652037748
Bi 9.156298005970768 11.11297120914983 17.869864246415485
