30
Energy = -108.04199445 eV
Bi 14.511952565739849 15.723747750755876 14.43037190158747
Bi 13.803133879409067 18.70306366318052 14.698081873008821
Bi 15.33824172626221 17.74078725355291 12.245277509378356
Bi 16.505531981092986 10.91992649248174 13.709461024446771
Bi 10.784937450795894 12.188197270799714 17.141205321088357
Bi 13.88080373161817 12.22159334941652 14.922250669895375
Bi 17.413203322589776 13.3640730553657 12.169103198075389
Bi 12.246105006958551 14.866573192713382 16.932709185708358
Bi 13.365573879647549 9.14952377570506 12.15926645423709
Bi 14.443057962373302 13.310158730914583 11.389997681118938
Bi 13.608085643574226 17.800184904924848 9.783143638751396
Bi 11.05751483366962 17.96777971187551 13.64013672363353
Bi 16.293052382742395 10.972970867193814 10.677591015215116
Bi 13.33547923266566 10.566831296315403 17.477850398088354
Bi 13.339678148412109 6.982032625766567 14.348021102068342
Bi 9.860964277747925 15.934624859031656 15.5528292158129
Bi 11.101267242988675 10.976727517949879 14.228185049526378
Bi 13.310376774508923 6.854687933161328 9.85201128166188
Bi 11.463154209605422 8.532450263959714 16.15239381868517
Bi 11.173286763620494 7.045368764584849 12.164123705342964
Bi 11.722699366860622 14.959289060455024 13.197076233056137
Bi 13.102514795428188 9.438349410326978 8.234981831134963
Bi 11.19603376426302 15.924864261759883 10.236101217509935
Bi 13.703408306013676 14.890953920479435 8.85090678776009
Bi 8.869287517999062 13.06495290258899 11.737825345025112
Bi 10.749672633658191 7.6588536174612365 8.254531366459027
Bi 9.359313894022039 9.335016178088875 10.512865498903764
Bi 9.423035317678433 13.20409527672655 8.778222900513308
Bi 11.529466160633932 11.44919438902402 10.2256009405555
Bi 7.170475184290022 11.461665794407246 9.851542744875964
