33
Energy = -118.71416642 eV
Bi 9.25495467554914 15.085194678823779 13.951377396387267
Bi 12.005685811378319 17.637338413957572 14.264467101659855
Bi 19.27499844284061 16.540621634591393 15.885709029946598
Bi 11.950079418288578 13.602004804455701 14.297322883046819
Bi 9.499555781129398 11.092863628427413 12.875900507408256
Bi 8.608576943715905 11.405929708239908 16.295382706254824
Bi 20.239269300247997 15.551694003084384 11.252891315461499
Bi 14.964054957784448 12.098457895195395 12.839079366234225
Bi 17.60253987788672 14.790429751168984 17.725945676154254
Bi 17.943043786295437 17.51893617757951 11.420042788894278
Bi 14.668218901999806 12.85195342443502 8.854127436370032
Bi 12.41994056457051 20.018595141927978 12.429400968816207
Bi 8.232136428105587 8.237112506898262 12.95244164171788
Bi 10.427437766813705 7.073784619918348 14.70630962338499
Bi 18.08071880758243 15.180016160302312 13.371284126141461
Bi 11.590179241557628 10.9686542740916 15.949157508667133
Bi 16.059208221211335 15.078938409807932 10.707607427119742
Bi 12.909647252766218 17.189626189083743 11.410026165481984
Bi 12.804922158788063 15.006651056508112 17.04316518060068
Bi 18.409188934053518 13.738279129501242 9.51001479335813
Bi 15.452746057350382 15.62641961884597 15.67135284907051
Bi 16.7217493263891 11.277128400406843 10.393187151007282
Bi 16.880179175209825 17.707595483052284 17.34799221204114
Bi 7.155668552025557 12.88946457868898 13.665509351938177
Bi 8.016728880423779 8.438820389096167 15.96997285120862
Bi 16.09514703222615 11.816373241875 15.767708119359773
Bi 15.194989239922146 9.342804717960638 14.158092626671541
Bi 8.298525471117053 14.45862154242665 11.143464597928393
Bi 13.83714856638874 12.260551373324992 17.734258524828174
Bi 12.44410542703357 13.600064828137086 10.905126072515623
Bi 12.204060638789695 9.252594385823462 13.461019195996018
Bi 14.830202336747574 18.44768590259143 13.415587880607246
Bi 9.982484596943 12.211105109333953 9.982097077822852
