38
Energy = -137.51658719 eV
Bi 10.805760952693216 15.64786826557567 16.27390151647014
Bi 14.06735980694156 14.65825106080083 18.04385545855689
Bi 11.394032305544796 18.16569873270575 13.593625390040723
Bi 13.034652487564108 12.019268800627614 19.16810932412111
Bi 13.453412208727784 14.577211654395184 15.044810655472979
Bi 8.783034485218016 16.685026996704224 12.268565521683444
Bi 11.98631599893133 18.91835459726282 10.709086743203198
Bi 7.894899517967514 14.887909491243441 15.585179632683596
Bi 9.763393170919558 12.971887564860141 17.155025914048956
Bi 17.37061465749305 16.63728175293811 12.102457958796624
Bi 16.90335765265523 14.12736736486805 13.687042610500933
Bi 13.644946631177046 16.820565766497474 12.150066948065044
Bi 15.82914786646776 12.194207463073354 17.91479596279125
Bi 10.592770531748311 11.920696840302908 14.372323251260392
Bi 14.469386084696117 11.602616301243597 15.16192082282159
Bi 12.906196865565375 9.794601298352811 17.049668393282243
Bi 11.120244009907042 14.778095387134172 11.6392682018303
Bi 10.09853570645334 16.75025839150994 9.532290642910942
Bi 14.597062112991276 13.334766206375502 11.590247618616461
Bi 17.39859986275216 15.548242045958357 9.181448354092474
Bi 13.92931139767567 7.619111898422567 13.689890142357397
Bi 7.37377827002536 14.038325422477692 11.183474797850275
Bi 10.097413494700984 9.342715815740931 15.882502781177658
Bi 19.174949719421637 14.238724715161378 11.70446470039274
Bi 7.62399723845441 12.462512088088573 13.78185371715403
Bi 15.67589085031967 13.879803285228764 7.246420237779613
Bi 9.61848666203669 12.967402734893186 9.530708861712421
Bi 16.925870430644174 12.556833046795465 9.810554281261973
Bi 13.585654490605082 10.315663610600007 12.048735368579003
Bi 15.352609361875057 9.101777011661094 9.894298162888024
Bi 10.615443265793258 10.362996075347388 11.018540844362816
Bi 11.042637803399225 6.9271851813008025 14.241393683546521
Bi 13.193338327289233 13.00512867928219 8.639971649817351
Bi 9.381523523267854 7.573130604863845 11.81145113440754
Bi 14.057958289759846 6.486929547950223 10.891287610930524
Bi 13.689769419718946 10.136192067075786 7.593169452098808
Bi 10.893611425097221 9.158293468882357 8.243677433247122
Bi 11.246211730656222 6.487963611658019 9.687011061305254
