33
Energy = -118.9728912 eV
Bi 15.035104372757912 12.950129064814938 9.190907355810765
Bi 14.804864946224432 13.162956152256607 19.086183129752015
Bi 10.326424749006776 14.912804592572552 14.093832613645425
Bi 12.759817863275549 11.180702005760416 13.839153683752475
Bi 19.95310708001833 12.639324573974665 14.416645534609065
Bi 18.705005804993725 13.162059447356738 11.668419526194112
Bi 10.281785525890243 13.29954133572551 11.421059679687508
Bi 12.437575332245666 9.390349778677882 11.341686352241327
Bi 16.56712928622491 17.574194588165252 13.751384035789092
Bi 18.65844684938023 9.870886990884683 14.481650859518227
Bi 13.878537115264072 15.338393038437932 10.739249051288244
Bi 13.01776619967468 16.355845892717188 14.030059578355434
Bi 9.860052284806367 17.638367693117146 17.13840570497544
Bi 15.842797183654968 12.148293789731953 12.044950996478693
Bi 8.409567861496162 17.975451914099192 14.471630526686067
Bi 16.77704692476642 16.2284377249168 11.002538440816167
Bi 17.44997387860649 12.043469286563482 17.991580072409462
Bi 12.217019528520735 11.834183252588112 9.516663830745197
Bi 8.52305713333711 20.310502660191933 16.398063248094136
Bi 10.554525630597539 20.098145132030027 14.112620335403136
Bi 12.509959525101817 18.6913594769335 16.006725047744634
Bi 12.792664968237608 8.262621772404664 14.687804419029943
Bi 15.834177158893782 14.711565038946588 14.833416396862235
Bi 11.548513903381833 14.239130435506702 16.897414928806555
Bi 14.719141360737318 18.056551518334423 9.65800913141705
Bi 18.060617140192534 10.15520810991441 11.48194563719759
Bi 14.295181243492653 15.63706029332599 17.326721154487863
Bi 15.974966981681954 10.96576802566111 15.547916863818578
Bi 18.46064139928477 14.42121358561546 16.4166542568199
Bi 14.026026869596457 18.886760986611115 12.534373454307655
Bi 12.992238004561514 11.548436977411441 17.211722453816485
Bi 9.986462616698807 10.563261369807254 12.761739647875363
Bi 15.155425980721661 8.16264619826969 16.314494754889868
