30
Energy = -109.43659702 eV
Bi 21.18313039329266 13.136730980007446 19.31182774382859
Bi 19.34243986148962 14.814984638212865 17.554115006147903
Bi 19.220249581988863 12.8267518656466 15.315466588488459
Bi 19.910189104562342 10.40175401845411 19.128018470314597
Bi 18.80248745998376 12.419712605281239 21.102513095791206
Bi 16.69917010248851 14.265085153889947 14.4399423277967
Bi 18.035310459403224 10.452631530064172 16.7289290460514
Bi 16.249023049852433 13.321186259818095 11.59970994594688
Bi 16.98372821588052 14.139551229623427 19.36004868611983
Bi 15.919683110284174 10.342173575964138 11.895033622379824
Bi 15.730022319537095 11.670355097117929 18.217131468939375
Bi 13.54167706219305 14.735779685843784 11.972709711523
Bi 14.381805672683653 12.734414339986959 15.680750729293758
Bi 14.805539744961974 9.911599910213292 14.703686413347882
Bi 13.205218545230476 9.457406302881118 10.707350238046569
Bi 11.964411411899313 9.615447086233768 13.497775598416617
Bi 10.895118858546107 17.245421581542235 14.434988519882358
Bi 12.74527139097353 18.18289757816319 12.222328477352248
Bi 11.084901516171055 20.20070498334207 13.873720930973306
Bi 11.598329587317224 12.024664243732111 10.197615706203395
Bi 13.450774238504536 14.325462753733605 9.030829293916586
Bi 11.314356989207955 12.627680247051142 13.238847168297035
Bi 10.85600049228774 15.77570908163851 8.39815250508897
Bi 9.591532435835468 15.167137419959799 11.097354851249536
Bi 11.151579019793926 18.567363019055232 9.660279800750036
Bi 8.462601654929694 18.779576289404655 13.463162295043762
Bi 8.815110390829384 10.680872728873519 9.627571961643744
Bi 8.347730872818865 17.897604891350007 10.561887652820332
Bi 8.475646663562653 11.214834934621996 12.534590271976569
Bi 7.328432491208727 13.155978666010451 10.535134570087108
