38
Energy = -138.78834895 eV
Bi 18.740219996043486 12.781114931908224 10.69202671750848
Bi 17.312790277238538 17.362475058092265 11.344605094607482
Bi 18.72428944922404 15.667620714728486 13.490242933814976
Bi 18.284559036365312 10.463077821460645 13.758347679535428
Bi 17.635683102523963 15.067373318973942 9.080658441799516
Bi 17.299088827807235 10.379007483017142 9.47045539002948
Bi 16.43610140077714 17.415213861654657 14.31587107434898
Bi 16.868059058547153 13.128221493529074 13.121158900410702
Bi 14.617538815396882 15.538556339368107 10.934291782741939
Bi 14.51093746090538 11.369995178978073 8.859300947277253
Bi 16.604855733169895 8.69326375672413 11.960015693889817
Bi 17.02767247501321 10.523049135106398 16.532287672837633
Bi 13.360195499168217 12.045315418820438 11.63449891417752
Bi 14.884652782712761 14.294280989087424 8.127747500350315
Bi 18.176701457303277 13.347215284485637 16.158789789883492
Bi 13.560627661528555 9.039043389088066 12.230722251984687
Bi 12.901760602059 18.218520871579454 13.51098576209445
Bi 12.893479181644931 9.028438732375557 15.2342831874992
Bi 12.622805876955683 17.84140076885488 10.49154974944271
Bi 14.338503349165544 11.71540373174947 15.71963096764886
Bi 13.96093816711139 15.382592210206598 14.584845247286697
Bi 16.005193057991374 15.061355748928303 17.223659948991752
Bi 9.730326933322617 13.913373602349923 8.931950037817211
Bi 11.281109045853256 15.178112995099683 11.278766567537179
Bi 14.624636735820376 12.785828862544918 18.641898233962063
Bi 10.926629024039999 11.26722186382074 9.800752771974873
Bi 10.028499610253707 17.301648846995864 13.192778062190557
Bi 10.306036189124391 10.155964232698523 13.988809617433025
Bi 12.383854380306088 16.630879510024116 17.01728136760432
Bi 10.922832348133765 12.27006654665672 17.127504843855025
Bi 11.227562240461426 13.103700841795737 14.103691762662152
Bi 12.106705804321743 14.414522804042656 19.081190704426398
Bi 8.406880284884664 13.926955696085503 13.355443067414276
Bi 8.216921894819938 12.11913320186383 10.842402510936004
Bi 9.45630924285568 16.70637978262561 16.223595596984975
Bi 8.461212908965091 14.075919587304854 17.397746116639176
Bi 8.559919745086056 10.215475989494518 16.45303298402056
Bi 6.767552960183156 12.425618950304429 15.417305639540587
