32
Energy = -115.97974392 eV
Bi 14.082562837526769 10.62244666397925 9.142031837960548
Bi 17.22422287426149 10.69428595875061 11.001859972394644
Bi 11.964370509122787 11.889062540194196 7.346970163127865
Bi 13.423313409310753 12.82830396842692 11.209647236330923
Bi 15.911436950708891 13.032878734598965 9.500944685320135
Bi 9.548005353025601 10.859247028864399 8.938206832561939
Bi 18.81203855319569 11.463017194674187 13.472824610844107
Bi 10.502675942514461 10.98527403901145 11.900269133908273
Bi 16.060621801707246 10.387085876505132 13.79824813451335
Bi 12.098833011969935 14.482318320688792 8.959811964952632
Bi 11.656361318486859 13.406621982323239 14.808655502422793
Bi 18.448133297923576 14.368204104632216 14.82238053828432
Bi 12.512167699417263 10.476646654593468 14.973270791264529
Bi 18.53231141732292 16.784284173412043 13.059734573676177
Bi 7.69575252084763 11.453356035388193 13.011461737823835
Bi 10.093616917582027 9.99099444372026 16.81231814958532
Bi 9.334566588937294 13.821197002448553 12.099909536211864
Bi 9.079302676067506 13.854359743558902 9.039227615583146
Bi 11.678887669277383 11.480956598681486 18.96901515748852
Bi 15.539336198760468 13.495063908530648 14.451705622511783
Bi 16.408747859404084 16.61063309050148 16.422887006713424
Bi 8.811892351077374 12.506448221852152 15.670017378240557
Bi 16.05581132772778 16.705216563925216 11.277988514657736
Bi 12.08439365624695 14.251990978923518 17.683233788740228
Bi 14.216064955648095 10.49581146028082 17.550963900894256
Bi 15.022160651881402 13.451624234944742 17.511357085536087
Bi 17.071745415810277 19.129780016312317 14.719643598713214
Bi 13.833274117778824 15.837755603516879 13.146434127246142
Bi 17.085999287365784 17.7163062478646 19.212400988561807
Bi 14.20486887471373 17.653633701102343 18.326748153216617
Bi 15.945462471437786 20.00006303233959 17.650585019590597
Bi 14.573653975741141 18.777724368253207 13.02183913392257
