39
Energy = -140.83231255 eV
Bi 14.185609199047782 18.742220838708832 16.191649022827526
Bi 10.626305095869874 17.186323870434897 17.417195507950932
Bi 11.967341706034583 17.221561209880207 14.676388308250592
Bi 18.2275905438673 18.758601178508616 13.495072375367078
Bi 13.362701109862583 15.957360159790237 17.05542037806078
Bi 15.83367428192746 17.003801082176256 14.305230935808163
Bi 18.950806821388444 17.62103437210457 10.756030398699991
Bi 10.55246588737301 14.156661705220758 11.316190699458927
Bi 8.839529082322192 15.076050157009858 14.174173833887059
Bi 18.562119584653566 16.61236803758806 15.580030570994913
Bi 15.93806555744575 17.08907521367938 10.645865141631939
Bi 9.291353386465719 14.4100023066053 17.16337475428646
Bi 11.291397540290294 13.457907049433189 15.112154695234787
Bi 12.379184217047712 16.698409378208755 9.388731410609724
Bi 18.728643150474895 14.093313023021102 13.861868717474549
Bi 12.97371354445667 10.652860857567019 16.502422118609474
Bi 11.09234484081744 14.155852416497023 8.298595668966785
Bi 13.713732789831143 13.961375837381503 9.829388413533183
Bi 8.082839897539444 12.667310345439292 12.369098488284873
Bi 15.952864962951034 13.081231198813537 14.704264805170217
Bi 17.923600843545014 14.800545228186495 11.011162584925746
Bi 7.36108273945844 10.946367388917439 8.882397081061242
Bi 13.98703158519945 10.944156514608068 12.913519073250388
Bi 9.270243881546055 11.090059565823292 15.26800853604217
Bi 10.950632187020492 10.658711762836033 11.662279642094328
Bi 15.441591392228622 8.826315535038116 16.78660661558839
Bi 14.990164299437744 16.028692019579314 7.933258723337284
Bi 10.44086790695061 9.540138458622172 17.766691121809213
Bi 17.541206453279234 10.657516301057978 13.450103385581203
Bi 6.58705276749189 9.50801743279115 11.460365144778915
Bi 12.094776482160007 10.355735427863365 8.801984671295823
Bi 14.924259833246296 10.299879170914979 10.065612208687147
Bi 11.206864466608373 8.730992310831008 14.958964581276396
Bi 9.296474115035078 8.021477348843348 11.522644720050348
Bi 17.476092896788483 11.100481010174706 16.45407500531533
Bi 9.027068231799001 8.402859207050017 8.508665630376056
Bi 5.950739431023693 8.29595468061067 8.724574959362963
Bi 15.438184368812475 8.426118411849973 13.75482226274056
Bi 12.867773837717541 8.091966153207625 10.620182801996124
