39
Energy = -142.05535854 eV
Bi 10.937628255659682 10.233268343606676 6.786499412890637
Bi 15.436780745356367 10.454363903562466 8.116120133996235
Bi 10.706435728438542 13.250327619288722 6.562900870765419
Bi 8.465422809583908 10.491256695094446 8.551830463905953
Bi 11.794386053864905 7.236812682729283 10.196602873654928
Bi 11.350754819406294 16.303760989850694 9.345804982073254
Bi 13.186192004988943 14.241272129696528 7.984503984809189
Bi 12.671819170617132 10.055086391235136 9.27618534423672
Bi 8.993231369273827 8.394704001296182 10.71540086483841
Bi 16.931303664221414 9.877575869177857 10.699883654985362
Bi 9.18837719569828 13.27681903709336 9.6897878991269
Bi 13.600153599177142 17.97264603967017 10.53225881275248
Bi 15.96884769184747 15.425968591351221 12.06180256614136
Bi 8.21803343780264 12.609187756002703 12.580308094192079
Bi 11.84248899438345 19.407109496346035 12.62645579724988
Bi 12.080117059706744 7.394491648552752 13.208584520587534
Bi 9.861085935243388 17.08720291957056 12.693532360274835
Bi 12.144151552595414 12.9588138887181 10.55735783177329
Bi 15.940488810068054 12.71511492106669 10.15734902769655
Bi 10.283506097473014 10.269467284188883 12.743093970335615
Bi 14.692668361812602 10.67885251780749 12.609566508270843
Bi 17.253275488859092 11.143669528389172 14.196689405158816
Bi 12.59760753440813 15.653557634071666 12.26903181059641
Bi 8.332200575378483 9.46087549702952 14.980056155116012
Bi 15.016024471035184 7.71928704392081 13.614061251061825
Bi 10.370542174562337 13.469373997694412 14.607573231657689
Bi 18.04594887967785 14.110795306186118 13.889102773498871
Bi 13.68760250188539 18.857792993576485 15.020612455210394
Bi 16.36870621412035 17.7507915545168 14.052754573229013
Bi 8.452048531068884 12.084234212462208 16.549227414649838
Bi 12.534082404454928 10.391975726458785 15.76860337022211
Bi 9.726945271328244 16.29539519348223 15.617014179754692
Bi 14.099688791321237 14.150532052468453 15.128252512411107
Bi 14.57932917178313 8.299068365960322 16.61258566111587
Bi 16.37538712169499 10.747747236882422 17.082129615876106
Bi 12.62626109212864 16.4513007397285 16.5475207891283
Bi 10.10457738603452 9.691511977521037 17.435025447921443
Bi 16.57487908384043 15.53924524920273 16.168002165306007
Bi 13.851251519692076 12.427173810381321 17.631932966105815
