34
Energy = -123.94163328 eV
Bi 16.45259745812263 15.059753689032949 15.94365078230738
Bi 17.572904290759894 12.902226134711023 12.683990455773472
Bi 15.505496539659283 16.558857057454592 13.451271072994878
Bi 18.339858564765862 11.711663753464933 9.957874478482683
Bi 15.15662423178941 14.949453753395122 9.237389384454078
Bi 16.637839772893557 10.110245987718033 13.644028755569352
Bi 14.413848002244988 12.750638266771396 15.862415993654553
Bi 14.781564281243512 13.92342158429171 12.086386374182919
Bi 14.313437155991302 16.625440702340033 17.48338570058151
Bi 13.376406111956465 13.885416726444907 18.513614991755368
Bi 16.061826988503963 12.31703126571801 7.970472035662822
Bi 16.887581494888433 9.094989211727606 10.734752695119543
Bi 12.116494500932154 14.785391933659355 8.79365714380292
Bi 12.785814140217092 16.992163915717196 14.829311919542578
Bi 13.596598743318498 10.42686271339534 13.324972300172885
Bi 11.881655090159828 16.699772545543716 11.171364965756734
Bi 14.416861664864832 10.717628158567125 9.973792475451917
Bi 11.988986958039227 14.088918324554148 14.491640898769214
Bi 10.151591682452986 18.59151454647988 9.536575289394722
Bi 7.868122963914098 17.978819024800156 11.11562768678548
Bi 9.334960780547979 15.74617848474694 12.621646312868165
Bi 11.376264795747595 12.546445316209786 10.798222866450335
Bi 10.631636069175343 13.771464268873135 17.219837465000342
Bi 13.528657328571516 7.620622293875373 12.079156041375661
Bi 12.714661165053833 9.144584054437876 15.97986746419858
Bi 12.66899495155814 8.332783965267081 9.203628368909543
Bi 10.369476479067114 10.301671678893808 8.96400606691425
Bi 9.897307210001784 11.024810629940562 13.72701793569468
Bi 8.599911372731574 13.753046877910782 10.445597276331718
Bi 10.186342137565092 10.771486552607556 16.752621380821566
Bi 11.43763341503137 6.924059887664695 14.18746745539326
Bi 7.254986039496572 11.696766116635603 12.280800222636907
Bi 8.78963069507602 8.262556043210711 13.530176856688575
Bi 8.097138096489532 9.226419451558593 10.690568192592037
