36
Energy = -130.5909295 eV
Bi 11.048929718605601 15.088367057574816 19.29243834818558
Bi 13.574167043061207 16.798914859625196 19.071036142476945
Bi 8.788517110913732 13.212967489647866 16.187034792259936
Bi 7.7882928129785505 14.474946604908865 12.223117445955383
Bi 12.558999828736349 12.447376879886187 18.992937448843055
Bi 11.88143213641288 16.321750736417478 16.621729227246014
Bi 8.82812947003928 11.854170885351275 13.431220418552831
Bi 11.2619378701746 8.565584890786976 13.955750839533485
Bi 7.774776467285189 14.137214762232807 9.178683176612989
Bi 10.877933075666745 11.101788995572791 16.789003701235945
Bi 10.197382049478 16.367165436370954 12.11386619739358
Bi 11.368301316574467 13.17544524174488 14.603482544802624
Bi 14.19656052273808 14.399522233690346 17.233758191794497
Bi 11.21214334385311 6.24945273113699 11.886767228798526
Bi 9.987413142290997 10.043878128823122 10.465674362203734
Bi 16.356932902643806 9.240374480581005 13.806765465273163
Bi 9.65062173801597 12.010844928885318 8.086974060116805
Bi 12.538341118795254 10.612560496383955 12.05483665135241
Bi 13.875311418616196 7.041113834578761 13.551126080661083
Bi 14.866179527756808 16.164189685828347 13.657619485407647
Bi 15.200934892556463 11.611330573807496 15.350926746588753
Bi 15.234261728376167 13.184646379031403 12.659320827300085
Bi 17.149795823943087 15.73636560340385 15.685099566333577
Bi 12.275459567916972 14.31703759313754 11.325249973014914
Bi 9.283794814962869 16.818124374511868 9.21302084518762
Bi 11.449966992791738 7.611880741902733 9.271968324913594
Bi 14.2015125081613 8.336217477623814 10.751130141213325
Bi 14.017693651445928 16.484690831003928 10.085294615441446
Bi 14.844439947567782 11.883238022367765 9.639664800542844
Bi 17.926089896383218 12.869347344547787 15.008975673515813
Bi 17.765275508796215 16.652200411153576 12.824753249719963
Bi 16.97615852202923 10.076264772477078 11.016544492651683
Bi 12.259274928783826 13.483409687438838 8.369654246761678
Bi 11.90811851572001 16.434894637662282 7.723443233081085
Bi 16.288893172329455 14.484460649435622 9.23017883923356
Bi 18.119933063806453 13.746318311045556 11.804044801130951
