33
Energy = -130.98278241 eV
Bi 0.5573649622513523 19.752250452499677 22.06210886441905
Bi -0.25478053703799397 20.81938878186692 19.486373062523658
Bi -1.3711201988213617 17.300095719514506 20.835099118200997
Bi 0.891285823047801 22.162836171946836 21.410421105800527
Bi 0.7858860487753785 -0.18715539785048552 22.545601001936838
Bi 23.798515145953765 15.00269879982654 21.81597576738713
Bi 0.7370767217207631 18.43132156759301 19.89952496344611
Bi -1.879582874759095 21.557186757454705 21.21699545960813
Bi 21.1414287651818 16.164754277661928 21.28647962795403
Bi -0.910138902127831 22.90986487025642 23.56110407597532
Bi -1.6830832612364945 0.8914446264617186 23.571251736042573
Bi 21.84296287228764 13.773391907634819 20.417414583828645
Bi 20.23165255586982 11.175919913534296 23.47650148267616
Bi 20.453632247748278 7.125394354961799 23.423210597795823
Bi 22.037089198533344 5.842443556462935 21.67282383217031
Bi 23.18574382290625 -0.4341863942100122 21.08163760643273
Bi 22.194692862028305 3.2101475935660484 22.371091195707262
Bi 22.569634361944743 16.48559003469517 23.553563860683063
Bi 21.131898509176544 23.86257842497942 23.32085863731384
Bi 22.290262102460186 11.552194459355642 21.924396273115207
Bi 19.023659341027123 9.104300740616411 22.589114230525666
Bi 21.406038333156612 13.874329307095032 23.160075135559815
Bi 20.03746385825484 21.829819127924363 24.35545539687773
Bi 22.931358057543914 19.00446421102771 -1.7466600803248808
Bi 20.344550113087134 10.340663048242986 20.787704343595014
Bi 22.40559382815019 20.953815236546937 -0.15065983288349621
Bi 19.612854571344727 12.69297660708044 -3.259157305955221
Bi 19.815302152019072 4.651202933618108 22.56837556249522
Bi 20.792192083126356 20.38377583933845 22.29291720599774
Bi 20.927007419791682 0.8649771959474207 21.53628768279116
Bi 19.49485492461976 5.433557499862102 0.42115326302970535
Bi 20.560640172132384 3.0050531534978413 24.546603235846902
Bi 22.058003949426524 5.171897493971141 24.268170614594858
