33
Energy = -119.63065083 eV
Bi 10.777846246329482 16.169657805979885 16.297519991437312
Bi 11.090672433949452 13.22777457717124 11.08926067283521
Bi 13.942416320398008 20.913624036857716 11.5654645115527
Bi 15.262948052284946 14.149190720114818 16.83221297260716
Bi 15.02880979579312 14.26277785441174 12.96135591998312
Bi 18.78180540120576 13.331167892595737 13.628941918135704
Bi 18.25033201215823 14.741539504638018 16.265167500131376
Bi 13.440399178291987 10.702298678762745 17.164397501340417
Bi 15.552937236012005 13.516665730489846 19.79504464748546
Bi 11.842460083719178 13.490794840351372 15.320531242175438
Bi 16.741150367406657 16.650260248215602 9.354761026005004
Bi 14.21605291218655 17.33912513382717 14.906404042974849
Bi 15.171154930008873 17.058240276838177 17.786711681502936
Bi 8.913296193932117 14.228962809763653 14.854836921221478
Bi 16.74180808045067 20.359769303409372 12.492516463900902
Bi 11.892287290015625 15.438467900961408 9.157191323646662
Bi 13.15268752853162 10.774503042178567 13.17506816697609
Bi 16.246370382945376 13.045801583755564 10.438465241842845
Bi 13.820192819298434 7.967168885896392 14.23489500993464
Bi 15.026137176823191 18.021804304042472 11.493851382199864
Bi 15.57077097778844 8.56979636047091 16.663963090524298
Bi 15.574820626585808 10.176489937683742 11.468183983651809
Bi 17.564646138374513 15.880978273819249 12.423258956069551
Bi 17.21189477293191 17.57764140936081 15.507955725791662
Bi 14.722808331072688 14.628291543242785 8.32320033049188
Bi 10.571204262458236 13.732589590000044 18.111330806986064
Bi 16.131087646351133 11.521230544400643 14.162927606704743
Bi 12.688612614483379 7.767424045227589 17.053612963678706
Bi 9.06783080358103 15.323675726034068 11.977091772507382
Bi 12.590737643966063 13.75977461212447 20.423093444799953
Bi 14.490096755571662 20.447484551515814 14.52203067365045
Bi 13.862564257070833 11.012444533083384 20.165245289660938
Bi 12.085730529315654 15.87429663424181 12.168113612896676
