39
Energy = -133.6479252 eV
Bi 12.443571828059103 5.3732487753076805 3.5177996677943564
Bi 16.945140431791494 13.091846514320283 17.19720828334634
Bi 14.65411252548013 5.55436585766697 23.254421919473227
Bi 1.8631383227972276 1.862633403303031 3.4795689873994102
Bi 19.510299105826338 23.87952633787177 18.123068029337194
Bi 2.8635745110895146 5.538251897597125 17.21642911570985
Bi 22.51763003420396 23.170586277920357 19.407393363680658
Bi 23.99680826182097 21.237039347731876 0.47969727588986905
Bi 0.3983662330579771 3.335301811833798 14.45786342984478
Bi 3.277165367511221 3.316081905298198 15.368719974484558
Bi 0.8235274182963821 23.234278732897085 3.4148611894258964
Bi 12.98695230080184 2.506072876755704 2.6473109097183665
Bi 2.589033954124339 20.6251433186776 0.22356079425989986
Bi 22.30697256541418 0.47423603173753376 16.722684241665586
Bi 1.0229684505498762 0.6012684758206034 0.8540857920891796
Bi 2.4460715995251694 17.694896984257433 22.80215778116168
Bi 3.0937921593650937 13.944210921421318 21.445526967426193
Bi 0.7361031923811154 2.151063532436661 17.219073798447692
Bi 3.7173493509563738 17.225297188213364 18.726393157601915
Bi 0.8730762658539394 20.06303979162769 20.147762515916618
Bi 15.503910190712128 3.5054939906682674 0.9138300344146535
Bi 22.046323332036113 20.51687183190035 17.949586875511386
Bi 16.181873370463837 12.356785163387281 19.625912834535733
Bi 5.5450219606840845 15.27809929631383 20.246629019258734
Bi 24.14763618938308 5.122003151690257 16.852869878234902
Bi 1.3082099656868964 16.205865712191795 20.277524821862226
Bi 1.3118486482807052 22.637224892188996 18.53792169020483
Bi 23.847188022927014 22.122661317989746 16.048132456864977
Bi 14.338243357357644 13.853490644059564 4.291084150571184
Bi 10.587660455512797 3.9236133780117632 1.8051882635727208
Bi 19.29690524180384 21.2805514842155 16.963145163866972
Bi 3.821496464050377 19.488620169008975 20.757754496486847
Bi 14.975248798436077 6.368286416672234 1.8036696489202084
Bi 4.836647790196227 15.773477353974814 23.119539066000577
Bi 1.2375641387151892 22.271671373118306 22.288308241348908
Bi 12.703940855874189 16.0786076551308 3.140862187983533
Bi 13.92070606985713 17.7362980206887 5.313124532679519
Bi 3.484830506801935 23.803378103744055 2.209353895973997
Bi 15.727946413573285 16.340478350652127 3.3814533054125158
