32
Energy = -116.39424872 eV
Bi 15.358866408823921 9.141969455336309 16.12480086436044
Bi 17.58656933647515 12.727184250186784 14.325930470843156
Bi 13.10833560425065 7.107323972093074 15.793449302689803
Bi 16.4350822692954 13.329325458485421 17.106865219867274
Bi 14.041398426870549 11.436098635202807 17.61401210295826
Bi 17.45491363909191 13.389950750292046 10.673621760043547
Bi 17.827865546152477 15.718140366050665 14.394333510374588
Bi 14.438887624423609 8.270207185950296 13.355708654677953
Bi 12.29557502513255 9.975527711318257 12.051908253703461
Bi 16.464472348878914 16.141399613902117 11.403915752562689
Bi 12.600876250918754 13.100857582107002 15.587995086349498
Bi 10.522010547761223 8.683780533507102 16.146463462365052
Bi 15.329826897738682 15.976845377663896 16.10869830592096
Bi 15.909672685405788 14.054355310864265 8.033914300651805
Bi 15.00869323598603 11.76213544087265 9.798687370201042
Bi 14.608914594199442 12.500953021569899 13.307783914700561
Bi 10.646516830958262 11.07925958554785 14.35982636064108
Bi 8.969961376199796 7.2081548565728255 13.973383013919841
Bi 13.930993078025889 15.907824523545676 9.409582066697892
Bi 12.618665344927413 13.499337709564674 10.73737562163462
Bi 10.507015920328431 7.5506422092809515 11.396892221118677
Bi 14.09662282854334 15.461964947630737 13.235815666777256
Bi 9.117660389006312 11.665348466710013 11.24227672180655
Bi 9.917915947783692 15.782412137761739 12.227498771524937
Bi 8.073545396397027 13.74285442212588 13.427993881200383
Bi 7.792928217030403 8.904616287806437 11.716658064485538
Bi 11.130426801220441 13.053586203672666 7.596785020299794
Bi 9.51449899353354 10.599206942639574 8.237698149172818
Bi 9.464433979421381 15.175041505312667 9.183525604884913
Bi 7.0789542839487325 13.389426497799347 9.610066899250109
Bi 6.90300347273759 15.865029472691644 11.701446557127625
Bi 8.193839459258813 12.726413116944858 6.674099986338478
