33
Energy = -118.37867793 eV
Bi 10.159882180720661 14.19411020189659 12.275021762796397
Bi 16.388692342753526 12.581487356175106 14.513485485707807
Bi 13.993671810747145 12.597397742463222 5.393734200647254
Bi 14.49784938212412 10.061344621649724 11.284683347441424
Bi 11.259672642543968 13.654190511779994 15.029182671600832
Bi 11.575301176295612 16.619625909933927 18.640830959202372
Bi 9.639998712610003 18.601744295066613 17.463698850617707
Bi 10.881628705898196 9.047868122157496 12.79319058865836
Bi 14.430460445123321 16.958277573743846 12.842970847010847
Bi 14.334318671890536 19.493064409643083 16.550688873519626
Bi 15.643178537758018 17.35348463540394 18.290463348976584
Bi 10.346914833023309 18.349261836279627 14.47689153205679
Bi 16.534930150086215 15.776262669596079 15.820237728653723
Bi 12.857544668153217 17.03158772423526 15.513652595853232
Bi 13.145181551640642 10.722319597476298 13.946667087922798
Bi 13.112712133107015 14.411495743449963 7.684333478291391
Bi 20.02774867153689 12.60493894941446 16.87595369274335
Bi 8.77510385248015 9.067549195560629 14.982442187508296
Bi 17.304507399565257 9.720987416862599 15.137404111477203
Bi 18.031510260974468 14.487205175708315 18.1702469467943
Bi 14.006561315123772 13.983053310848527 12.310796828324634
Bi 15.657817433599297 12.838143184935658 7.914211530826704
Bi 14.989902385656714 8.293226455157154 13.718028806507991
Bi 8.585641817839246 12.104680859592724 15.256901981966555
Bi 12.996332970518298 11.422006712283224 7.990936586382896
Bi 8.936368407999874 15.659882050828726 14.670196923075064
Bi 8.359353104911234 10.757766636048775 12.51683374328419
Bi 19.35109849856406 13.27200581823622 14.03963491506154
Bi 16.697434418692293 12.162061448170693 11.46077684594448
Bi 12.249040381642354 16.04894554842036 10.91670848049757
Bi 18.567003983487414 17.385746888265814 17.363615797927263
Bi 12.21687598852355 19.568957350114555 18.775436445689586
Bi 19.06903085703194 10.463114831297617 12.774767138938895
