33
Energy = -121.03882291 eV
Bi 16.728528686787214 15.283737645123132 11.561699022781006
Bi 17.060897963200297 12.229297854526113 11.482790902519572
Bi 14.575200115952802 15.371400297371327 9.35702382661949
Bi 15.17599277132261 12.788335475562864 7.859648513642979
Bi 17.591364234431296 11.729548130358111 14.375936904717271
Bi 15.302680199646256 14.89522770778065 14.22440700454611
Bi 12.527241500899091 13.118020632911788 6.394638828605114
Bi 15.867276978158424 8.573687887562514 10.97555680354171
Bi 13.965761979047892 10.699474583489152 9.780446181526875
Bi 13.175280439045954 17.112068962784292 14.281072819685964
Bi 16.61679654181373 8.875297166889773 13.929215001629657
Bi 12.161233715002696 14.34314268139783 10.90553566319166
Bi 13.131553286329721 8.602539306838665 7.752421906774589
Bi 14.264125687171402 10.330116304672433 15.164265458038567
Bi 11.023514719145632 10.42773667803252 6.5765292634887995
Bi 14.220046765699347 12.366126017558843 12.845216033923329
Bi 11.336796675887097 17.13293923810894 11.835689565869911
Bi 13.494790520411915 6.870163309462141 11.924590505295246
Bi 11.767283016651833 15.336890476095222 16.265197970115302
Bi 11.332515529706384 12.834476517278944 14.6268097483347
Bi 11.27447495352272 7.74205556217831 10.00162202815869
Bi 12.252480010811786 8.058005065123409 14.480500825657563
Bi 10.983854582049716 10.518485885884735 11.31990947885109
Bi 10.419563688161178 14.137566167685696 8.398952659208518
Bi 9.242034123918234 11.343919559151368 8.930708302913821
Bi 9.890232181040028 11.813994350843942 17.06587488787807
Bi 8.630830195462682 16.302050464162097 12.9882569871788
Bi 8.989079347164454 16.457424232371693 15.992916243839014
Bi 9.502468828189421 8.63614613253853 13.28805906625758
Bi 9.086811702847026 13.344611125956078 12.604173599719463
Bi 7.945157124732683 10.086357187178566 15.485040898678022
Bi 7.605708352674896 13.860748006983378 16.886369490381114
Bi 6.6837413624174244 12.603727165439983 14.264241385733271
