34
Energy = -135.87999243 eV
Bi 12.997190479273 18.604668538891822 14.193427092677616
Bi 12.843062803850673 12.521320416195119 10.217412088107679
Bi 16.758806199776636 14.753992565472268 16.807757615846
Bi 17.182774689525466 15.90187774775984 12.764462243747978
Bi 17.272319859757488 16.659770397616494 15.206582004620719
Bi 18.944508972185346 17.066252950813983 19.537140960294316
Bi 16.887697216566192 15.765336557559992 20.834680910467174
Bi 16.337222125199116 13.391584534164247 19.91897814911581
Bi 18.327359883311985 18.203224337709816 17.037668595681872
Bi 15.662833708354736 9.533507389203397 14.695808525832598
Bi 12.682854690091503 11.131421440120432 12.81921405998155
Bi 13.909926383791108 11.276446417284152 15.072986377492045
Bi 13.07221197741786 12.797380256625608 16.97473657453148
Bi 15.69085134495558 12.553809948616722 17.45458554720163
Bi 13.710113030734227 19.437811456950815 16.492574168760804
Bi 14.747286060430003 9.856654366181148 12.257675328856758
Bi 12.048776003703306 15.019786273977303 9.716945809043398
Bi 13.109961243263987 16.69789535585575 11.602343108442772
Bi 13.62621880288533 14.596990768354354 15.274814227978574
Bi 11.737348898245427 15.347647834723091 13.673541413387781
Bi 15.115836210740019 20.069570128477647 13.837360670701045
Bi 16.50059929141206 16.790267174693632 18.51784948110893
Bi 15.186198061018155 17.516270565609773 12.906241972973891
Bi 15.455337687959402 11.889914709950752 10.935299518158365
Bi 10.794147462747828 13.916483256441435 11.695217539873497
Bi 10.652479278125952 11.394292092175604 11.369153632861877
Bi 14.412361654329883 14.81680659134947 18.380247511591854
Bi 13.542935857945457 14.19789576826154 12.07144752332628
Bi 14.530905802919152 16.953195649747414 15.557876929505253
Bi 18.402473596378616 14.717478018297026 18.767551239187604
Bi 16.43937146950125 11.659578226153107 13.466391154459407
Bi 15.54918376386962 14.039440520288132 13.61600410735388
Bi 16.165894946609495 19.092296028559335 16.001841185864976
Bi 11.061613510354134 17.670955600608306 12.793910429688903
