33
Energy = -119.5927542 eV
Bi 13.717013044724855 16.108343681605135 15.72991842715951
Bi 14.782147738706895 18.058282296570535 13.380543876676565
Bi 13.831749629574908 8.05764037918411 16.37732957166073
Bi 7.299718365967173 15.397621630875209 13.489095532171948
Bi 8.808632791171632 14.905797500246672 10.891934986741886
Bi 14.408612901071217 7.771640825016566 13.358996751457248
Bi 7.691721483274602 8.890226122703007 13.297006223828346
Bi 17.20928602303477 12.228068974380559 12.53266179705072
Bi 12.811523804598323 16.13416964398777 10.225201673524094
Bi 9.957232413000348 7.248041313587962 14.5949833263846
Bi 12.274632295486464 18.722807547170888 11.961522780336324
Bi 14.93719017176295 9.107455683542382 9.499191190626284
Bi 12.466903495536744 11.38025695347682 14.493763112769747
Bi 11.99857146380331 9.337491638204929 8.80497339427544
Bi 15.769523004682101 13.492018001577838 8.528074751835238
Bi 12.376858245202916 11.180794714251915 6.306156064015735
Bi 14.84489128200207 13.92414738433101 13.53600097766453
Bi 14.862651527560878 10.977136096490113 16.418810429956764
Bi 16.56834907543385 9.790512366833177 14.232870074981852
Bi 15.373193259644326 10.809486253548018 7.001053823524429
Bi 15.660796159681787 15.869461705583715 11.371063630055296
Bi 14.668501868250644 11.889396793827881 10.876630268340135
Bi 11.612779952779738 7.8844041790716375 12.112357631853936
Bi 13.030077783559165 14.221442110625548 7.477657107520378
Bi 9.847117085811565 10.366893343294818 11.684289428311189
Bi 11.13083367339334 12.331975514389516 8.967891670721658
Bi 11.70336032041019 13.638018029920687 16.426296840604934
Bi 11.068940997895957 9.382448042356971 16.41147833320187
Bi 11.52154317382287 13.954112779817763 11.972576238578764
Bi 11.306604493131006 16.45286479343011 13.946791418608028
Bi 8.8001159623921 11.51368023034913 14.345776012557598
Bi 9.178084953747332 15.239351956009124 15.885942009540504
Bi 7.050715964488895 12.70203286350969 12.129520768931483
