35
Energy = -127.77789027 eV
Bi 7.90161206951333 13.968103162687253 9.363649891034482
Bi 9.318410334172041 16.664469914275593 9.49553113243279
Bi 10.042639580939516 14.656535319072928 7.326359122814652
Bi 8.885398868476228 16.399935854575485 14.075768645175888
Bi 10.814294041583059 10.023789513235892 9.182067205956505
Bi 11.363094777061931 7.197799098749793 10.042238658432996
Bi 11.418120186077743 14.802168230186194 13.492578326685894
Bi 7.223948076873132 14.071545080764036 13.050423611497763
Bi 7.953241181993242 14.201304576616556 16.00271351602803
Bi 14.350157790233878 7.652693946493618 9.410507415371004
Bi 10.459051297822208 7.411622647450431 12.948107865370735
Bi 13.334876679044234 16.631281422955574 15.091952848955554
Bi 14.841346735230989 14.062142435967207 11.966765161672276
Bi 10.60405271613944 10.23055380155436 16.34240968251786
Bi 14.900091934157764 8.258697041466577 16.50613865808573
Bi 13.339081554219941 10.633982262217422 17.611848025836387
Bi 16.356460379574862 10.203881985678088 14.613591225062647
Bi 14.094904415407973 12.220785417016435 15.106957050953708
Bi 14.13770041510736 8.377469465378745 13.567006257552693
Bi 15.22596336864291 14.687863585777517 16.477360026883954
Bi 11.617195781840756 10.188450729208109 13.447927675241644
Bi 7.721186157386693 7.75220435103933 11.635694779841172
Bi 10.800777523221665 13.272846277289707 16.38467012287381
Bi 14.303746217435958 10.58502323127089 10.422079627367562
Bi 6.886761621010797 10.616787719581106 11.052256137786852
Bi 16.906962209949413 11.840930659078044 11.376008843054159
Bi 12.864131760930775 8.950931079914893 7.049189040192699
Bi 16.07523678422715 16.06738834733625 13.895411562364265
Bi 12.153506222294993 13.494946037438744 9.237413270732125
Bi 12.087584027684521 16.159370137915488 10.710624775638939
Bi 7.993295353002093 8.891258586026312 8.794160825263413
Bi 15.19781753539771 10.916851117305617 7.575996473929939
Bi 9.352190273154942 12.395809082942455 11.561533108263351
Bi 16.694678689307615 14.332753223930029 9.573552305851107
Bi 14.562046431644795 13.89443498080192 7.418959985915011
