30
Energy = -108.06422309 eV
Bi 15.983078526446954 12.009851393448002 15.889177123759339
Bi 16.300599866469998 13.007711498475283 12.894923580056043
Bi 16.701587104868103 15.66898704782782 10.650499741158855
Bi 16.46049239912555 9.48487325626094 11.675430993453187
Bi 15.997904376629693 9.205946334565818 14.639861937275372
Bi 16.213491535025923 12.98224815760778 9.39144583092436
Bi 14.349041667723323 9.090300455196783 9.543978019460308
Bi 15.43636054556452 15.519832224434337 14.423453898010152
Bi 13.573795575426905 13.023080268512613 14.385062841771752
Bi 13.8590245641044 16.186630341731362 9.541054058341613
Bi 13.162295503652418 8.327077144551911 15.007372555052735
Bi 15.630212123997566 18.03486430043418 12.456412494240427
Bi 13.439034194115063 5.908666815670479 13.205168277125566
Bi 15.500781253802044 6.671657523035138 10.999358811544955
Bi 13.4947823588325 13.13273816058762 8.325077972723307
Bi 11.567914744962257 14.974958711920575 11.123465715603084
Bi 10.273938928220181 13.748888154718143 16.05611295577735
Bi 10.03614800516679 11.079229181328403 14.55436637635643
Bi 12.310306750676345 16.634447584742652 13.569959328393107
Bi 12.561715237482419 12.077724682043664 11.050978775114705
Bi 11.0809632642695 7.783976584897788 12.83953698881634
Bi 11.451504067836638 8.3040920211711 9.916784879970045
Bi 12.996751410000737 18.718392170704544 11.38747235460397
Bi 9.457286068408663 16.35552062612316 14.841936334785919
Bi 10.075211626852171 11.022699841434092 9.637297805451505
Bi 8.331439659111334 10.651194494120999 12.10345299814433
Bi 6.835918556543104 13.151450931688489 11.425031354922652
Bi 7.668651839674587 12.226644961380519 16.140388694066253
Bi 7.390700581615697 15.795773788229411 12.757880839135032
Bi 5.7583138570302825 13.687840233492013 14.207201148788654
