34
Energy = -122.98178287 eV
Bi 9.774224952973613 24.70151888509863 23.484963327368188
Bi 1.723636526286019 23.77854343091723 21.95847773299468
Bi 7.804386260182031 23.77727212930927 21.368359408747207
Bi 2.74234839373125 0.6719419504228743 20.375589318585334
Bi 17.478749580367698 19.026609327825817 24.884527221793544
Bi 15.07363614417661 21.142027882471826 21.093775659635384
Bi 14.161072784721712 23.292965692715658 23.08409356183911
Bi 6.1087109134575615 18.48167397536573 21.845820716798556
Bi 24.203987944755166 24.803632134291032 21.170453142513956
Bi 25.297449353111126 20.66218798063559 21.689760498082105
Bi 20.06815500638336 20.95706547260046 21.44246510825888
Bi 21.26227565198585 22.038922509548225 24.01379317643104
Bi 18.053659642652008 24.414393132893977 22.24465051113201
Bi 3.8615842500538196 21.62561286731326 21.345637960715724
Bi 17.520546173438575 19.437901389050143 21.905704259027072
Bi 15.367668177843264 25.413002195935952 21.22816788326603
Bi 0.26627375328414327 1.7372146447866108 21.837764955406886
Bi 9.58613249803152 21.789127715724753 22.83548910446633
Bi 5.607156351459696 15.80890312006361 23.238237012643832
Bi 19.908202510704708 20.3190168697221 0.535866656406292
Bi 2.0169780750561146 20.592438111506585 23.513349399291126
Bi 5.480526591914002 23.315448431882636 23.300261860857123
Bi 23.850625647550284 1.8155850705003667 19.516791148609997
Bi 3.291770696686091 17.521818450047686 22.217893768772
Bi 23.36923389832003 19.778346546253406 23.883476799230333
Bi 21.839911381644058 25.520064301867823 22.972404331099057
Bi 16.854749685032434 23.206850448285568 19.737659770465275
Bi 3.6645588354449425 0.2748549311167819 23.204729971622722
Bi 21.37002576804214 18.275407149208924 22.107190754189567
Bi 20.136553758944462 17.569515023767813 24.832830623484067
Bi 11.629280170300259 23.530530898987386 21.37244618564787
Bi 4.9425612907745675 18.40369415773928 24.60269694900512
Bi 20.29832394086328 25.375493331227354 20.39226286529545
Bi 21.442285431652472 2.4902932035538177 21.271951463897377
