37
Energy = -132.07548231 eV
Bi 3.300589721611404 13.980204729141288 17.985922255992854
Bi 14.80209838035179 16.450418779810207 14.179661537831674
Bi 14.301031478556622 12.644319167113977 17.070500052239314
Bi 1.1558633194074244 18.333303619878468 11.242811006201382
Bi 13.5238247734646 1.6878139012382376 15.80182667946776
Bi 1.1255825578229803 2.906079921514656 14.90073798585815
Bi 12.134851156201716 18.199933389309866 1.0676264411471605
Bi 2.9932874432401295 17.00683600572282 18.394484097494807
Bi 17.538715540872403 17.678396510686678 12.122393717977111
Bi 0.8983906100905383 16.392502591929638 1.3228466144008408
Bi 11.620249304309588 18.956039679905903 17.018391890815007
Bi 15.657839410962087 0.3167699040088134 13.940583224966959
Bi 0.9625141489446676 17.673535363078255 16.239264155526214
Bi 16.426936149163414 14.325845346465591 15.5629364856192
Bi 13.743995467831288 16.993028979895552 3.431861994774454
Bi 12.670784437062775 14.62303938136133 18.683628941328333
Bi 13.845809734975255 1.472889617853286 1.7931737495000597
Bi 16.071122498574027 11.23092822765027 19.08781721916132
Bi 2.6567496878088437 1.178993914756751 12.918164156985906
Bi 3.545059152158837 18.00597119414246 14.699325984676882
Bi 0.18347835596889536 2.2545438255357673 0.22655434420569417
Bi 17.177580556312893 3.556837224440149 17.724112941017108
Bi 13.225224638667886 14.203331989422859 2.530391551690869
Bi 12.228744454610244 16.23884922367026 15.840269500725045
Bi 18.946947044105702 19.089328216609392 2.1283095512436576
Bi 16.067676005247694 19.0112296545982 3.1422705580631862
Bi 14.172568711554081 17.232799834806166 18.098653566451553
Bi 2.6697036122455375 13.618908270889907 15.073369715844947
Bi 2.018273002225429 1.2068951887303474 17.237294308577255
Bi 0.4348163779129057 13.31235913809099 17.17190101338969
Bi 17.27537274128577 2.7408751009111194 14.827184465185672
Bi 18.819272819998037 15.402811684206148 13.58261386293218
Bi 15.618742479857758 12.406841107769152 2.6543276015295705
Bi 14.263241282709982 3.0548442430048524 18.40103179557395
Bi 2.5974206778794313 15.83303220387627 12.74728814160932
Bi 18.06475487656894 13.295030116846542 1.0497801328744325
Bi 17.933212748991327 15.680309392225574 18.296365398218104
