32
Energy = -114.89411147 eV
Bi 14.165055227838813 14.359931228736281 18.955751279565582
Bi 18.489459249839964 12.162917612250416 11.244312765742022
Bi 14.931516826342966 13.192690201681248 7.978839072845879
Bi 14.802169358903837 14.482832655270625 14.5777835987405
Bi 10.906591623576197 14.507453108713523 8.766177862875375
Bi 16.547661238227263 8.004665956192964 12.216843767983432
Bi 8.091646927495514 9.860476856018288 14.114094071799144
Bi 11.73086540732484 15.62955878861891 17.674067748669305
Bi 7.560694215788565 14.917328504542049 11.884252499244557
Bi 15.074401484355917 9.315782335429555 14.590396237924818
Bi 13.175108524679219 13.425179151144102 10.49672551228957
Bi 13.134280119242922 16.91598645135518 15.348607377604
Bi 17.185696196355856 11.229211386087924 8.679493456577367
Bi 8.361142378684118 16.407495086126758 14.441656899704043
Bi 12.212299239808226 10.407681386448578 10.536637769021748
Bi 11.099579587981236 15.416271257063256 13.518444024063033
Bi 16.970088556739174 11.70955786996366 14.089743709473934
Bi 9.40393913248163 10.243615598407313 16.806028146564568
Bi 19.03707733743978 9.63905215772517 12.890243463428058
Bi 10.797254750352415 8.619804322581453 14.642805927384403
Bi 14.573774901494463 16.30477262343759 11.285738371796795
Bi 9.892874455707924 16.528467007348567 10.82175888514609
Bi 12.521034891574441 10.95833981726634 13.611232615999066
Bi 13.086393890655762 17.0423777740728 8.87673575264189
Bi 9.644353056577868 11.701066756591207 9.720124454605578
Bi 15.93371589650456 16.013412764970784 8.559977952213476
Bi 14.470656673928602 12.27853625235627 16.696654950106797
Bi 9.362817318722454 12.43878592121144 12.74993491697992
Bi 8.019823322878137 13.587241416882982 15.578906847525651
Bi 16.561689381529987 14.455344312803184 17.096571589823508
Bi 15.519547049628839 10.70685717660621 11.168840465431705
Bi 10.926162171518454 12.980138424916086 16.066578879878904
