33
Energy = -120.79317623 eV
Bi 17.25124766719329 18.16163126386171 12.589628019212778
Bi 16.12096867906063 12.215736300513845 9.833679438310636
Bi 17.42483789081865 15.135713708298304 12.171869393927237
Bi 16.019260694643528 17.677661467439485 15.354043072869572
Bi 14.978845221656846 18.996177017092226 10.692770041621873
Bi 17.14264511644502 14.80066574504565 15.223314281889467
Bi 14.736343947235476 8.711974340652386 9.511177532418767
Bi 13.556902560186606 11.33881545952504 8.467629127084168
Bi 14.655399456765359 10.430939975483714 11.976733889709148
Bi 15.40242617952293 8.416588401411293 14.143779899342665
Bi 14.036328329840035 16.439001615839015 9.314029557895127
Bi 12.494065661706502 19.129312411071346 12.485463956378295
Bi 14.540993737014068 13.105971738295244 14.904256985971749
Bi 13.597361653787353 16.693289944870443 13.864214275193593
Bi 14.571294193078103 14.343059632780044 11.457100647938812
Bi 15.348843857140606 10.540647082279229 16.401092511911614
Bi 13.297418390434965 14.32241695585991 17.432114026183907
Bi 11.618836427913159 11.551573292007186 10.944142268508472
Bi 11.085901663442188 12.31709574680183 17.852139306430452
Bi 11.265662038901523 17.46031406963692 10.208936433958609
Bi 12.513689074197996 9.757105188650405 17.15610451975635
Bi 11.431616461463689 16.262465402172882 15.97222342272821
Bi 12.808158242440143 6.832520366492267 13.361734429031234
Bi 12.335743062385871 6.985671753898907 10.348091941998051
Bi 11.515754881214397 10.592617545024215 14.359049156981627
Bi 10.347020971237816 9.13593555040855 9.643870334132977
Bi 11.111963877089748 14.1959511297715 13.768257681786043
Bi 9.096563914083873 13.108585559269256 10.073755241372947
Bi 9.34633916024723 15.646708966195444 11.779591982240005
Bi 10.129291895464144 7.963028699418716 14.315148008102163
Bi 9.092306785296111 12.339698935914615 15.089605157650464
Bi 8.374681329905524 8.676252532470857 11.886285551590445
Bi 7.663048376709661 11.626633600070244 12.329929304395579
