31
Energy = -111.96698147 eV
Bi 14.665158042044148 15.871170622184662 7.610180555616381
Bi 11.860149090926537 14.684372480025708 7.638549152021368
Bi 12.381663607004779 17.420164586219904 8.858401689373032
Bi 17.91300121461425 15.92116518964375 13.59391042387461
Bi 15.512652732490599 13.944752680441606 9.829496946096292
Bi 15.498004873091125 16.23049755857795 11.7813059987599
Bi 11.193814154646205 15.908480949334075 11.268606536064649
Bi 12.55483094501119 13.315505843133197 10.370596412091572
Bi 12.449562173278254 17.398211354353183 13.68465654457212
Bi 15.377823479041934 14.325685616416271 14.191152673696063
Bi 17.97478008106445 12.833482728246755 13.58490382070705
Bi 17.620987660771718 11.133481267400793 11.081956868357464
Bi 13.038823988442195 15.877493496678634 16.274454575532083
Bi 8.240664574018409 13.777243315064364 10.224941956844916
Bi 9.753788159832196 14.468406149702789 14.028933188565164
Bi 9.685631708591806 11.12194794237037 10.46020320815503
Bi 6.132009394541594 13.003473466951064 12.28800169812426
Bi 16.22717000659615 10.46914127064436 15.706092559650711
Bi 10.215607444823888 17.004688670853547 15.744286463636818
Bi 6.671786881549003 11.162211659852327 9.962383783085627
Bi 7.806520656632096 12.247646385494487 14.701324854418385
Bi 17.98986174573675 9.06227970109429 13.33536749511327
Bi 15.465002180577125 12.849773255416697 17.65500342726743
Bi 9.774224169629496 10.337521284454969 13.39252226136416
Bi 14.641620100209776 10.46253442636221 11.070478423429456
Bi 11.519600883914958 13.229227577300492 16.13345987886407
Bi 16.511359083759757 10.239173076090777 18.778430379659717
Bi 12.624059444771708 11.527725194520077 13.794424753981168
Bi 13.454935327939843 9.060452964856871 15.411032825884172
Bi 13.581092109053415 10.609231788684834 18.25716533645392
Bi 15.225112680897475 8.064156093131311 12.849073904241163
