31
Energy = -111.27329001 eV
Bi 17.86948079487879 13.524685625907884 19.345244315498014
Bi 17.407081829779962 16.4975312306223 19.146587028124
Bi 17.093326146226556 18.10305039633869 14.815977776929598
Bi 18.069489734055434 14.902585438048595 16.654804763076886
Bi 17.860707062395864 18.977424230003102 12.019145870765847
Bi 18.41624412026089 10.78291796290479 16.376358726844078
Bi 16.81389291533886 16.178725275600854 12.484991097631033
Bi 16.725773695419015 11.84880608529345 14.064536956843813
Bi 15.368770198565162 14.586140164309345 17.944549735289872
Bi 14.936895139000308 18.551402407195077 12.739741382464432
Bi 16.840934350724154 8.86086927472568 14.59047010596845
Bi 15.385414830773142 13.256757984077217 10.734053612620807
Bi 15.405286708998227 10.709479883207944 16.51227253474305
Bi 13.8334154311305 14.323649839883485 14.466797087621197
Bi 13.577919674484571 11.73778684802151 8.813411211904226
Bi 11.781577726676742 12.802574000315138 16.123567549375373
Bi 14.115910107331816 9.142395304054908 11.947419933550572
Bi 12.123729009978252 15.807923482974692 16.5229913591291
Bi 12.624369607261656 8.416216881908557 14.473828103297254
Bi 12.699972876175394 11.95839046094691 11.80090447376975
Bi 13.442565403813115 15.598897830205082 10.270336913798289
Bi 11.944296281527038 16.660132328067256 13.491671019959822
Bi 9.98079051153184 13.92657301624194 13.89374718821284
Bi 12.553317436825669 14.389742261393463 7.6086119562067935
Bi 11.66594382680505 7.297250298015007 11.833852465730377
Bi 10.444301352582311 9.852525965975047 12.896543162587076
Bi 10.725333436480419 14.090309179740007 10.020818039065162
Bi 7.790661629418107 12.333009926375475 12.340118375806762
Bi 9.745189882629862 16.765135199573884 11.2029301882384
Bi 7.116313132614514 15.257813254743164 11.69946060107094
Bi 7.028422417635586 14.246625234648523 14.55158373519533
