30
Energy = -107.293429 eV
Bi 9.796611200132459 8.167178858188162 7.616074448533492
Bi 12.159205470481469 10.616922498716105 9.40531234765246
Bi 12.452427682779478 8.83828155451943 11.805395920923802
Bi 10.797671276730787 6.8229875510000335 10.192448057892165
Bi 16.232069136914372 10.610739398536117 9.984858327576797
Bi 16.01171546159909 9.268289383306593 12.742084410562159
Bi 19.13801915084892 10.780659857174388 10.905210899255822
Bi 10.132023956543506 8.94533639605181 13.785327484598833
Bi 7.597893679276193 10.302644458343712 12.90640388991244
Bi 14.048482198120794 10.055137926860736 15.008050394983083
Bi 9.149404375099108 10.821437896174688 9.057259188193814
Bi 16.561024045213685 10.494339214154511 16.675202776744314
Bi 13.608943570081871 13.316984540299876 9.690223655753275
Bi 8.047325673335255 8.125441863658857 10.070279777164165
Bi 17.944340071622282 11.2266223659792 13.870366032012578
Bi 7.644824404791361 11.356495806748875 15.833060126028109
Bi 17.526677623922488 13.268422823288018 10.582843480702055
Bi 11.382233163753291 15.041860714026312 8.4987747596665
Bi 14.931261702247571 12.822682190043148 15.768646916796996
Bi 10.710312167352976 10.963091409561978 15.95428830498008
Bi 8.72599570097096 14.418127560228083 9.800029792305814
Bi 7.952748090145392 13.303457542099475 12.564702885887085
Bi 14.374602709184588 15.296255409199617 11.935685118525553
Bi 9.589447290595775 13.630932854800582 15.055824477356378
Bi 13.222168599179312 16.415416091317923 14.644108753266861
Bi 16.77055665022082 14.094386252136204 13.545334892656705
Bi 11.690094993007564 16.777373992528396 11.096603883074593
Bi 8.817882577126328 16.827486307448908 11.765234859619529
Bi 12.30831816218018 18.984010080647693 13.361493228521825
Bi 10.274877605541993 17.153800519323436 14.599938645791855
