30
Energy = -109.44682829 eV
Bi 11.234612979039593 10.730908672268283 16.965410434475952
Bi 11.114973265859154 13.73548157596785 16.68510382266928
Bi 15.597967970026211 11.66376952804261 15.190201291640143
Bi 13.947569525539777 15.642243008631867 13.227325290777655
Bi 8.13840910047329 14.246825023661392 16.59278734117207
Bi 8.83333080766858 9.634586247518817 15.405340130010249
Bi 15.941128077418636 13.516474114272858 12.809583718904062
Bi 12.815322956633048 10.701847565778403 14.354239524132327
Bi 16.365231637010204 9.381637613441956 13.271700284809212
Bi 11.131119499952186 14.112030440442865 13.529436305134801
Bi 13.763416399601102 16.561831857949386 10.309464804887245
Bi 6.705983634154582 11.815124818340488 15.479602312529224
Bi 13.876989630116626 7.870614321739964 14.211086359567986
Bi 10.890573214743307 16.665197297423 11.235292371752568
Bi 8.847023592454025 16.012617245024522 14.195384295698904
Bi 14.869923826280173 10.946759803045113 11.062480795357903
Bi 7.268533620211594 14.890706342794532 11.837127594569381
Bi 17.044849786207493 11.379695077209911 8.970666132547457
Bi 11.925311678494174 12.461277797887533 10.42620060551894
Bi 9.509560972268645 14.473131100942412 9.750722868385052
Bi 12.415876064371185 7.057423022608314 11.605420385716673
Bi 9.663622022527711 11.061516322624522 12.83413284567385
Bi 12.979057619598862 14.374956184494657 8.337717121112659
Bi 15.669125782455291 13.454957443561092 7.261836827666507
Bi 14.594495663180659 8.092005884613648 9.829277758661135
Bi 6.76520114648578 11.952424627274727 12.430926598133023
Bi 15.490649179885345 10.523158137175301 6.503197058270274
Bi 10.681757861773074 10.503917378071362 8.503571283970363
Bi 9.937258467031224 8.695344724757396 10.829613935932286
Bi 13.045704262752048 8.906117066647823 7.4197301445362145
