36
Energy = -131.1685356 eV
Bi 15.899690590592208 13.370458447641262 17.09802799902746
Bi 11.69998912274696 10.619122413273589 18.354981350653794
Bi 12.91906829441062 13.370605695738508 17.83966861947671
Bi 17.23090412025109 10.629881868938947 17.031429946490825
Bi 12.58402053499049 8.667702153535522 16.19115721169173
Bi 17.146251276231325 15.982294824839961 13.486892498687368
Bi 9.39901798784837 12.221275890066522 17.176679190560755
Bi 9.902696150118006 7.886684434509579 14.981768359298957
Bi 14.945174636442143 17.170817570285283 11.754006684793143
Bi 16.32901173675199 9.11300719355103 14.570419313746555
Bi 18.164347553853908 11.51184498878217 14.251379329718315
Bi 11.492268074889264 13.169625222258311 15.152804322709134
Bi 13.70685468215254 10.56819006222503 14.089792793794947
Bi 11.373868612573302 16.20977485765146 14.709826379998226
Bi 7.9331043492312014 10.138040715516368 15.496633691692674
Bi 15.720769871176708 13.354371165695435 14.067627031836457
Bi 12.441925719842798 15.362038530181765 11.963857025778353
Bi 17.054434605927764 15.34788082798585 10.528823115262966
Bi 12.869554577129625 10.09191270713126 11.056133964545953
Bi 9.828804425933468 10.280513169583939 13.120448320586041
Bi 14.832936382329283 13.230731691315473 10.59441265863702
Bi 15.680139894041586 10.382249564591937 9.856681761725262
Bi 8.894038627905278 16.71025633543817 12.965543711641422
Bi 8.330072889503146 13.901946159536 12.026379881717087
Bi 10.560065916943616 12.4657644742426 10.076763963488219
Bi 10.879349402302795 17.73232783535552 10.878331073328754
Bi 12.18332734899919 7.822584671599828 9.113032031970878
Bi 7.707143519103748 9.07760363949623 11.31584946833823
Bi 9.154802376421317 7.652363072179767 9.089805363950985
Bi 8.035205375093366 14.319049878965343 9.096771093331967
Bi 8.379318448938237 10.649143538256096 8.786763950375994
Bi 11.724844278578988 10.285404394358418 7.460514997691607
Bi 14.381088088996384 14.120049883023633 7.710328500649669
Bi 14.664939278993815 11.12126711290818 7.064027266956519
Bi 11.34217063366979 13.968894176532153 7.478363965983031
Bi 9.880155103987068 16.57942096300333 8.260967970402788
