35
Energy = -128.06456968 eV
Bi 16.655296450647697 15.786758674549223 8.740293440285798
Bi 14.952874824094126 18.342295211147707 8.350490395341499
Bi 16.052978847555234 16.167582512894196 11.716834757692247
Bi 18.34196976140755 12.076646770891939 13.920277101356803
Bi 13.981429319692593 18.346478771399475 11.24510958353345
Bi 17.227959280925386 12.637001343150741 11.095525211905745
Bi 16.193443277103555 13.898020768207996 15.101701579406207
Bi 14.001379153921425 15.687382707169661 7.288303425816467
Bi 16.935970669725876 9.35078199856235 13.960180689168016
Bi 11.424060285764496 13.66550320725223 14.104481597789965
Bi 14.612249790258405 13.565218326313381 12.44651706334162
Bi 14.893233687792135 11.72839132921849 16.758001958559067
Bi 17.104942190157768 9.583274638390149 10.90678762545319
Bi 12.481867871947369 14.340425294443465 9.555798813115667
Bi 11.380664159650593 16.99685678663439 10.508532742578588
Bi 14.018329701240052 10.339429240239628 14.112686750511351
Bi 12.455400966374096 13.511187055852375 16.992604029504328
Bi 12.222586590057947 10.77070656400892 10.81309633168295
Bi 9.597191998010826 14.27532538004435 8.474124667317296
Bi 11.235336426725523 9.690829027828846 8.129994652125273
Bi 10.63173546714068 16.60558995014375 13.453580321119105
Bi 14.258544590202112 8.569730143858411 11.25840089075961
Bi 10.462794214780278 11.372370628271522 17.9881667490793
Bi 8.794385380047837 14.199396981667258 15.579696226080108
Bi 9.288430086777007 13.07661250278914 11.268455543718915
Bi 13.315302080188054 7.741975216392899 15.527233505589958
Bi 11.286489942171608 8.456979796708016 17.67450595046826
Bi 9.885750611351925 10.325766458346381 13.784122052201615
Bi 8.786582718109377 11.405698532383404 7.650791405600942
Bi 7.923617922898354 15.315010983211609 12.857261202256618
Bi 10.659796280138812 8.114075975766633 10.643035151891588
Bi 8.105695797346405 11.271375989800672 16.062806976106188
Bi 10.329388918943966 7.532316866721546 14.950002797625109
Bi 7.077251609607791 11.316238553349699 10.177777880099555
Bi 7.9613185428139515 8.920058915617574 11.817394574907324
