30
Energy = -109.10219222 eV
Bi 19.92063876955759 10.920631666821578 19.794218374597076
Bi 17.122062170232084 12.121732411075588 19.945169821074288
Bi 21.105461843699057 13.635949392488222 20.580027034011152
Bi 16.748201207795198 12.275783307136287 16.970464395627396
Bi 21.246839089034335 12.661255886140909 17.71193712844068
Bi 9.028627315504401 7.6184721057677605 11.10722464617975
Bi 18.299087460539397 14.81876244548759 20.738587816382324
Bi 7.747049255915019 10.364110179673755 10.648019143511425
Bi 10.11661828641922 11.35954279510203 9.022883164751413
Bi 14.51908922242916 14.287830721552638 17.484575702475595
Bi 19.015530085611033 14.092467878090977 16.20429425726586
Bi 10.394658513566835 8.310115493310231 8.490468092011307
Bi 12.003518429808661 11.385492010328676 11.395771907169067
Bi 7.371502084569876 8.050904490950865 8.65715788407435
Bi 18.75822105084027 16.325165749868518 18.187305992954244
Bi 16.251473577025074 14.549676022004917 13.291706203291428
Bi 10.483031322466669 13.232918439753297 13.2125385814239
Bi 16.8782728805152 17.261706611842236 14.472282574964321
Bi 13.63895386293872 13.225955053139028 9.551443010022641
Bi 15.91753817762775 17.005138399000476 17.33278220442448
Bi 13.551440878404422 14.058258740821328 14.597640347399333
Bi 15.391149763464268 15.61663613632148 10.58999332973046
Bi 7.884222959686421 13.840809994747723 11.699230858341487
Bi 11.24580289511186 16.184583509170896 12.172392743442826
Bi 11.719006464041506 15.450493123686813 9.189790340217641
Bi 8.769887632123659 14.766180511004045 8.938759300828373
Bi 12.293198789527258 16.708775437394973 15.208262567736451
Bi 14.259822048792884 18.703406193038457 14.060453372936939
Bi 13.613855294883646 18.008694422684567 11.177400995652059
Bi 8.344121593651863 16.797433797378236 11.206101134845822
