37
Energy = -133.53250673 eV
Bi 19.95430588616802 20.688578650545054 13.020495703686278
Bi 20.727809550900208 18.48789512209787 2.325090577611776
Bi 0.9574790884317893 23.23453430110539 3.6363508834850324
Bi 21.26512238143409 20.353142687771008 23.583411986404325
Bi 22.23512693194427 22.38782474614938 5.36512029946216
Bi 1.9247096448483647 0.2843393092288738 0.02754549490547478
Bi 19.881300150379115 5.452382507061694 13.709425679349723
Bi 22.703464928808618 21.073738656240426 11.799967186065937
Bi 18.227100016694234 20.70123444650233 16.800648451972513
Bi 16.99884576385115 18.45521738675419 18.496459629089788
Bi 21.2910258933762 22.55826189540553 9.598019129788584
Bi 22.889213991779954 0.31510048473169955 1.293323198779883
Bi 23.286902669169933 21.622046464790046 17.44782258319511
Bi 21.51779586534725 19.577396632099425 9.01962221024645
Bi 19.371874682900366 16.589645914341784 18.648676378635372
Bi 0.7221934283082344 21.428922700242794 1.1652668063257525
Bi 19.100040739582198 18.585553520362346 22.196111299483416
Bi 20.7823932283721 17.976481693073293 6.232104897547502
Bi 21.875260917451122 23.001567391001196 21.276852843338734
Bi 20.68068980359454 19.169880398314316 19.65605659239187
Bi 19.594047049889436 16.707964091542745 15.577570635472311
Bi 0.2219164139115798 20.951424819224204 20.54754989404424
Bi 23.31579957828981 3.0376493111233045 13.801810633732044
Bi 20.383728069283354 2.309855487600539 13.204042166969458
Bi 23.25450331293205 1.0051718955178321 17.384928935563664
Bi 20.051181418377862 23.218111245240802 14.829842248402118
Bi 16.950785517419106 18.23583224772116 15.454048028763632
Bi 20.802664947846928 23.17120899440897 18.24338848546051
Bi 19.781425794573362 20.250306427192776 4.59215910224706
Bi 22.354605365674463 5.511702353871376 12.172268497569252
Bi 20.83765284963732 19.520110586080442 15.726225091020515
Bi 23.008503064629743 23.335719275219347 14.478080153760514
Bi 1.0687677130241118 0.15843680780935343 20.74253041811459
Bi 23.613570061410304 21.497510564540196 7.94886290115725
Bi 22.780466605448165 19.341840008985404 4.4283270925438964
Bi 21.129312159211455 3.5384240844348502 15.836671048032764
Bi 21.981692715074388 17.772163715133924 22.117189841656224
