37
Energy = -134.09161594 eV
Bi 12.938459048299253 8.076760482298184 12.630745352438247
Bi 8.873024420118533 10.939010183981646 15.009050100789016
Bi 15.820364886036407 7.95258494432575 13.653788948357832
Bi 12.201217102778305 9.328499243369082 15.953068750498138
Bi 9.063304582792393 12.442234716504917 12.259579992346803
Bi 12.880614704922698 7.495632348456617 9.630502702622968
Bi 6.696326737564388 12.989436775408656 15.758748898358087
Bi 9.68416745108597 13.950413818182337 8.943136721515756
Bi 10.863217491029289 9.788350716436216 9.56535649936026
Bi 12.224480614429726 10.758665685568882 18.67272005306214
Bi 14.947050002556114 8.307919023937416 16.575347888378655
Bi 9.676614840967478 12.248847423512418 17.67507573876507
Bi 12.194908071786726 11.003526638060123 12.111558324653178
Bi 6.611402423171188 14.215386037744908 12.95974981937494
Bi 14.46248868615183 11.974389742428917 10.260866962712884
Bi 16.12550517112358 10.919419205827575 13.174783035960541
Bi 10.855860688101801 14.207104120382438 13.96068282070701
Bi 8.498379197880338 16.206249308216695 10.648895058112531
Bi 12.644982236339716 16.69519772281127 9.876968716630895
Bi 8.3147524702766 15.52163947381579 15.113939194969694
Bi 13.511066271493636 10.015506818320416 8.08760956331454
Bi 13.054679213802764 14.04276054034901 8.49434242709831
Bi 10.092595719485434 16.800816246599812 8.089039648621162
Bi 12.161522106776818 13.803831700556103 18.417970875173697
Bi 15.371681203846531 14.553925637325749 12.758733310571785
Bi 14.014655860386473 11.766322605889517 15.38307288233905
Bi 10.870111308127123 16.85693720500048 12.423822758606319
Bi 18.261313512514782 11.51572741884372 15.258365996455947
Bi 16.148766229388077 11.269600253789658 17.504570414749544
Bi 13.634630274870599 14.869893655636087 15.994778708309036
Bi 16.09619035839839 15.000294069988696 8.266746593855181
Bi 15.868666808662198 17.826105837597805 9.402842474430114
Bi 17.5444155605307 13.879200317429571 10.71115712097308
Bi 16.20757107244369 14.531939145562493 17.431376734029797
Bi 17.750912163270335 14.521983335171686 14.762194350334063
Bi 16.016507150320358 17.53928801899034 12.428556700680687
Bi 18.46646540807226 16.833470631480914 10.799124910645716
