38
Energy = -130.69984778 eV
Bi 2.3318735580425667 17.59667152004417 4.1808810100593226
Bi 17.798301093494814 14.64487710630389 17.926350984993903
Bi 4.8594616878925265 4.939922600814527 6.500416159699601
Bi 22.27762068463351 19.761092901268427 13.250493986828586
Bi 22.930438645206525 17.457046973911485 5.252219962640177
Bi 16.346305331892093 17.037397431139045 20.62182112437539
Bi 15.291599806569625 22.392131377651964 4.511686850869287
Bi 21.607304114479135 22.696988633710696 12.877243222523804
Bi 5.7467725687543565 5.261728887182254 19.25756425640939
Bi 3.9440772664997654 6.701444119320044 4.174431018618778
Bi 14.50810531848335 20.885592099043095 2.0060879617674647
Bi 2.6005421579001435 2.9678125713944143 5.788692250145518
Bi 2.18328546785431 5.934588820184452 0.25057194539630917
Bi 1.5369784211736988 4.684739035001003 20.65313627599743
Bi 16.663492002319057 18.189855987544014 0.3004880715799179
Bi 17.385979884268806 21.56840617975064 2.515793676823583
Bi 1.4581036609418438 5.009137102517232 3.847136720579942
Bi 16.236851116207074 13.697133843042122 22.98390671209875
Bi 6.517053841114938 6.241647230613971 21.989766635792865
Bi 18.696121039280204 18.565986821734153 15.370136598588596
Bi 18.29252644122629 14.836669419098365 20.983703018824656
Bi 14.505554392172229 16.105958728824156 0.781295629297191
Bi 21.048663999331982 23.093060237476184 15.841169439129953
Bi 21.474551842448424 19.47596837604109 16.147862960262245
Bi 0.4866321148936724 4.92785866515674 6.772481664525902
Bi 18.587342488765067 17.561779049329697 18.339930823230983
Bi 2.7605007913165402 6.159478049642687 8.284831637191086
Bi 4.862955199285953 17.744759309562422 3.1743868620606572
Bi 20.927252550238343 16.55096929031598 15.243647564269228
Bi 17.20435725623514 15.64161614829183 1.9747647974513596
Bi 3.585663508007283 3.1293743200756725 19.054620065241835
Bi 1.35119508560926 21.908401536628443 13.601511917184826
Bi 0.7574694840948815 22.88858702436135 16.409627641146322
Bi 4.840663891530335 5.205555556304777 1.5448729675579196
Bi 4.454030275210234 7.924130850231019 0.2700314094692086
Bi 16.013710245545322 19.481532607298572 4.18550427497742
Bi 2.950679204198945 5.964710185124836 18.304234811680217
Bi 20.718140770530432 15.344802392158694 18.07604098237085
