36
Energy = -131.42156414 eV
Bi 18.17562185036672 13.886753806012775 11.101120341093445
Bi 13.213100756799534 11.410709539871581 6.661162913972737
Bi 15.022721731802248 11.377446579895206 9.138290250742156
Bi 16.021986796160228 14.268429783498345 8.91309371604964
Bi 17.197788420272776 9.769651233649963 13.481078146227777
Bi 14.427600642105435 8.9111441561582 12.453850176687363
Bi 18.18280674313013 16.241262532905232 13.082190473548348
Bi 10.702021771513552 9.936137835689085 7.502970893304662
Bi 16.283956641957 12.644323667533346 13.157611259844396
Bi 10.552251683717772 12.881974033018162 6.838504564963507
Bi 17.95464037863309 14.089739763556656 15.246187385980239
Bi 13.114881727176328 11.605113569996426 11.543367892547094
Bi 14.091045435716037 15.279278072441707 11.031619283338346
Bi 15.745058650083216 17.64640693746994 11.903124535412246
Bi 14.02068277694978 7.903272500434943 15.358892565077452
Bi 16.15359429565872 9.846231616362052 16.377142316951527
Bi 11.487238983384232 9.280395191119725 10.39981648121689
Bi 10.71690285784447 13.629447368667977 9.76462715621399
Bi 12.542274502041087 17.842857346664452 10.405276144219844
Bi 16.111176007194114 13.704219245722072 17.733043128900096
Bi 12.995287349826855 11.004159570150975 18.45538561294582
Bi 13.110596539114734 18.11364335143134 13.41052665668459
Bi 14.217842742201599 12.168766303742698 15.990734294658257
Bi 9.85843116524145 16.56337021507828 9.617061684225948
Bi 13.148695753162112 15.246567164683471 14.584316957253563
Bi 11.082516760497478 10.693869713901137 14.398810850629388
Bi 9.226239830889812 9.152601108012608 12.493078253333007
Bi 10.678058401519609 14.100984062609045 13.198626956338586
Bi 11.474132431325657 8.913087674150507 16.799890935606403
Bi 7.737200724366378 13.575462092875425 10.609146980675366
Bi 14.04316941378531 15.557628667943405 19.081268748596838
Bi 8.477099914979835 16.010839069919843 12.27209751389368
Bi 11.60912611826178 13.70967838222114 19.067169824366115
Bi 7.356338348577277 11.562630777679448 12.88559385673761
Bi 11.761228384509575 16.066672740412816 17.15974729935738
Bi 8.928503821467016 12.725576008924977 15.247344301174907
