33
Energy = -120.87670977 eV
Bi 18.240243926528244 10.191839109361323 12.013693566370366
Bi 15.904935156025848 9.645567970926873 10.101615724780748
Bi 14.875139767088843 8.158478886024081 12.500677232643955
Bi 17.014076818912397 10.787791176226538 14.73349231347636
Bi 18.349635074641824 13.012392152685083 13.115130961940713
Bi 16.422916846706194 14.979424687827198 9.216204000707322
Bi 14.453625262057642 13.105272070906338 7.798496029497818
Bi 12.677958131187397 6.958808141753887 10.805444593355151
Bi 11.945605843225184 9.253984059023033 8.822619878003513
Bi 13.476648237093293 11.532528765770683 10.250007719674256
Bi 14.067145928423415 10.972436336368624 13.787596774368915
Bi 13.45614869606832 9.541216515200531 16.414453956875953
Bi 15.694965255365075 13.81404134380975 11.932876877543874
Bi 13.563718032312394 15.868422955711665 8.678819873066148
Bi 11.792443259918334 7.078847909046197 15.718596052703548
Bi 10.629533271070194 9.890664758143245 12.60445265178572
Bi 14.251143276892135 13.861060424586846 15.684662025509313
Bi 15.560671283143876 16.047792014887644 14.02741855420742
Bi 10.477547496969295 9.556209171632794 16.944665826756573
Bi 10.478283794385945 6.931619042065868 12.963050282797662
Bi 9.146311141474795 9.813325120655216 9.938186703936047
Bi 12.246400379237132 15.12182923687076 11.363196350550083
Bi 11.525760939471697 14.916178525153088 16.38901388291587
Bi 13.31156132472002 17.613333456786382 12.712996248941122
Bi 10.325927420930693 13.425241613568868 14.018557850115197
Bi 8.763453472384676 10.866613822830729 14.778149696462108
Bi 9.727517598083 12.788542771189372 10.394396324348099
Bi 11.293350387644862 17.625207791480328 14.972574618352679
Bi 9.98828422997851 16.939344656862136 10.385420960587828
Bi 7.704540316422422 14.897002695489018 14.116523026270437
Bi 6.977319972895586 13.388080057738105 11.583271495116508
Bi 8.81619037389028 17.538584136271837 13.135294342722913
Bi 7.952167308414461 14.989488846710957 9.2096138271801
