32
Energy = -115.19832559 eV
Bi 8.9447517478444 11.651835737058045 8.880722151326987
Bi 11.379469577508011 7.761506728794756 11.103562312124241
Bi 7.68895731242155 13.904247449813992 10.650383461065154
Bi 10.885304301739215 13.806039679667938 7.558131558224475
Bi 7.556459476891545 12.736496280979566 13.91180459052338
Bi 11.001399219212924 9.117142318753565 8.512429819290373
Bi 9.846192622240999 16.075823510552762 9.238867812806259
Bi 8.442102589031517 9.863282135349978 14.016927402711449
Bi 11.34772172077079 12.01170588717496 10.754035304388557
Bi 12.811825215266387 17.004960120216275 8.054727029226937
Bi 13.749494631714354 10.23200082329441 9.350136162887036
Bi 13.920691265574062 14.193710765253615 8.1405799647116
Bi 10.109796921404767 14.553243097330009 12.291299711662283
Bi 12.26428151285674 16.969314266440847 11.031398435194246
Bi 8.550555875727664 11.364446884032098 16.65117217503503
Bi 13.82757984049368 14.29385919966438 11.232741255798512
Bi 11.356259466076171 10.07387335422524 13.155267995471723
Bi 9.879162480254495 13.929610642272083 15.62245188857304
Bi 14.44174192507917 8.75383907009151 11.916467505648981
Bi 16.402679882333306 12.018529204391077 9.68855487541521
Bi 13.473594376532153 16.205651529946326 14.772186162810517
Bi 17.346370647012442 9.410767788724312 10.845358609921034
Bi 12.71702975484117 12.95001779394842 14.791836437717006
Bi 15.65463623290199 16.27730893254374 12.659888479843069
Bi 17.487020205802033 14.654209914294327 14.539205463417632
Bi 12.195419213601166 10.432499133939787 16.699373594712018
Bi 16.00474040440297 11.43061526725433 12.650979818361485
Bi 15.137486555034013 9.710679597636066 16.371284583748565
Bi 13.949024472503098 13.797206117093719 17.60162716865484
Bi 15.872220170092076 16.190771530958266 16.618774609208042
Bi 16.4452090903005 12.530009511847453 16.508914999090745
Bi 14.096957840807226 10.880932274728867 18.96504520870216
