30
Energy = -108.19092086 eV
Bi 1.7855341788508323 17.08036946037577 11.618494030656716
Bi 19.611470804651056 19.14795778748331 11.389043331258142
Bi 2.3351942513582626 19.95387058268166 12.369095493738378
Bi 0.6051160053543088 16.266563349387404 14.360775851639422
Bi 0.9066943175707579 17.55836720472452 17.5711953200841
Bi 3.147482648250948 16.124589544356656 16.006679517505678
Bi 19.068622057838517 19.528017814630836 14.555204256318197
Bi 1.4395933238839005 13.629414889964446 15.704752375728955
Bi 1.9526386836875211 19.935319063401565 15.55704823193205
Bi 17.457111936286807 16.225777204222478 3.2002582638591712
Bi 0.47826541655865645 16.317561159179135 2.522976844976561
Bi 18.180982957227183 2.4995092671669106 14.416722740026039
Bi 0.6239874605770332 19.20697913959442 3.4597152022264255
Bi 17.848300534028372 12.096080580457247 18.04364865173982
Bi 0.6821582174257232 2.7473210400876793 16.146950594609002
Bi 19.878540243772814 14.38983801811075 18.283203450430715
Bi 0.09361897548207936 18.630075120061292 0.4810561815669965
Bi 19.02084330085157 1.6147745699574103 18.521649778971057
Bi 16.43719347763009 1.8916863997469537 16.910025558170044
Bi 16.305488837994528 13.32967592777137 0.38920140187610824
Bi 17.565053062924342 19.240401533462816 3.791001438483761
Bi 17.36867323241339 14.65775112487248 16.49072227568195
Bi 16.776133608265177 0.013337764356066702 0.8957709689117905
Bi 14.581152462662155 2.225522293215137 1.184588639805333
Bi 17.675847902145005 19.07204766191793 17.40904181864485
Bi 15.065722683033064 15.34140130614334 18.497715855936576
Bi 17.583965300824957 16.231931987464215 0.13577496116006696
Bi 14.29052763468376 18.212770293518027 0.6782074708737871
Bi 13.10363720949238 0.5942911943064954 19.08154837566981
Bi 12.381317723767374 0.3199910175896989 2.0086726988442214
