35
Energy = -127.70656585 eV
Bi 16.817858014779514 10.654206389031769 13.664540339796636
Bi 16.758646333707546 9.909061849803916 10.671166545321196
Bi 16.40726771657887 13.9049464766213 10.690667976170431
Bi 15.225541613830465 7.301290720907117 10.339721916048221
Bi 14.985056727866098 13.11712330059708 13.267492543733702
Bi 16.463471065648854 15.03118572447023 15.129473697035355
Bi 15.150318932927508 8.19671347740032 14.393284310903772
Bi 15.16861519926608 16.652989559883082 10.184835370459878
Bi 14.213071404875826 7.994231738011984 7.550153788431752
Bi 14.871694178272884 10.93388381528817 6.990720787574946
Bi 14.419492598921348 11.704811845589555 9.879105248486981
Bi 14.49695375005582 17.341094616666812 14.818597859460438
Bi 12.99784738160181 8.336355877095619 12.280471861697672
Bi 12.954664537937944 8.64709314561442 16.511697511127824
Bi 12.327888687196827 15.179622874270514 14.766752750500086
Bi 14.213699512997717 15.457914226077289 17.147434495293606
Bi 12.803912326012775 16.447213238339028 8.284630645793445
Bi 12.347384930667785 17.141700976230915 11.20559451564954
Bi 12.702726739559967 11.58451730672138 15.81285756470928
Bi 11.903971335231605 11.257090889168559 12.877931621673918
Bi 11.83845112604915 11.277819531382148 6.563303069157152
Bi 11.176582583832406 8.459705500622947 7.5282142284660605
Bi 10.202008899721005 16.78157486728573 16.249571538285412
Bi 11.769399466761898 14.324271747276345 10.202834525673161
Bi 11.157786365249441 7.15734908823722 14.575799493654076
Bi 10.960278215784333 10.804125293783256 9.457177272849373
Bi 9.174033119289327 13.297027569185326 13.355549706940188
Bi 9.994504675013063 11.688900243794405 17.216133760163792
Bi 9.53662249190627 9.323343438770397 13.169071806386075
Bi 8.797627047586742 14.49321038778084 17.672578044216607
Bi 7.7420705551688 15.479010391203145 15.018193283516569
Bi 8.942323098922317 14.857313548641907 9.096397406246043
Bi 7.9510239973518875 11.109331945554839 15.060196356801178
Bi 8.226900499520395 11.9461434194891 8.61979240742936
Bi 7.151229119742089 13.395778236873596 11.06924637635347
