30
Energy = -108.65974374 eV
Bi 8.360505234388132 16.032412847919822 14.953141316184347
Bi 7.71686208763949 9.2487735643689 15.869185034413249
Bi 7.457891193798453 14.2851294601361 12.66700824018109
Bi 10.114065397753903 14.011009177043904 16.46088681199959
Bi 10.340168846585188 9.375278836800463 17.395366865378467
Bi 9.108724222848556 7.416192813909311 13.821788441798487
Bi 10.079857692108261 13.00797408582869 11.845240211827972
Bi 8.897575095410785 15.363566192883086 10.222553539751338
Bi 9.834758495373588 11.303806554958294 15.072967320402514
Bi 11.788251644105008 7.543189617120475 15.407633958493644
Bi 11.093939194683006 16.97047199522199 14.05431135401831
Bi 9.539050997569198 9.710029174865928 11.750708243799954
Bi 12.026907360584405 14.063222255360337 13.992876615756549
Bi 12.318357796373773 8.541651340705627 11.95922525367974
Bi 13.358927239818781 9.993977281729377 14.389975986469812
Bi 9.484344159411277 9.257057091274767 8.631101482505585
Bi 15.903434578037551 8.37417807677192 13.792086745846719
Bi 17.334071499630348 10.61151593991325 12.313090481495067
Bi 10.884021168478297 17.466806585748962 11.058048641948735
Bi 9.470980250916874 12.09439238686808 7.588257097967193
Bi 14.988019046495626 12.455473713072056 11.725132214580006
Bi 16.94167097968508 14.792975014185785 12.001745826183447
Bi 13.673308417333562 8.975828765273375 9.296885862994813
Bi 16.295088732201 8.226684364729161 10.760497847577518
Bi 12.76555699112295 15.073435231907201 10.627464265437032
Bi 11.517162616025544 10.063626574054496 6.5057685237127165
Bi 11.959387761449452 13.879352431751341 7.913030746944014
Bi 16.714418185147846 13.359265289666537 9.357921610052083
Bi 13.924781389540138 11.594043160445741 7.754505130154394
Bi 15.469423616275423 16.142314732921918 9.69362221385398
