35
Energy = -127.90609992 eV
Bi 12.778235665495057 8.539608918660743 16.326173133369608
Bi 14.008576106718458 6.864646691924382 14.10656928682957
Bi 15.540547235036467 9.228190488466423 15.290352793951065
Bi 10.81623178014344 8.855986878976372 10.904677199566942
Bi 13.982163185969467 13.033613367492876 16.128919144360108
Bi 13.494399324672576 15.831352044140818 17.1040339531755
Bi 11.231788950934089 11.860321352259104 10.701377321287213
Bi 9.481836831949277 8.780417402823636 13.623589899792261
Bi 7.2838388858065874 10.794958201912463 12.943053524357673
Bi 15.877669065131569 16.656537942674387 15.382794611707899
Bi 10.678595294847323 16.03880474607581 15.913343892060908
Bi 10.816795074187967 11.67737733118064 7.6467998537175585
Bi 14.696540414617923 11.660196455964726 9.39238357625887
Bi 8.15664881340925 13.664971357678038 13.437357296636264
Bi 12.295073005051496 18.67730769737972 12.150726204380156
Bi 10.375808397417986 16.312952846176863 11.615418432992172
Bi 13.514736074537101 18.159131625973547 9.40771604349364
Bi 12.625657571866018 15.251178356168 9.791277848011688
Bi 15.200764757774989 17.816900624403758 11.959149670943312
Bi 11.704127835440682 14.50439793515248 6.973722701120392
Bi 11.19328309353364 14.139841552930893 13.60383736082434
Bi 10.0713487472598 14.12086397638891 18.222647903149277
Bi 8.235012175595731 12.479739800376652 10.613540997590837
Bi 14.895110503125567 14.817912911673632 12.618960849768193
Bi 10.047978871265222 11.14385554002861 17.62587208655583
Bi 15.960791267372514 14.400192319650635 9.710807300430075
Bi 16.92602355103026 14.01833882527426 16.477478893712643
Bi 13.605395055842314 12.16487096887963 6.554093083846579
Bi 14.41653802373068 11.018146474578637 13.032320011178758
Bi 13.805612832791166 8.445196612431202 11.483852896449816
Bi 12.551852324927777 12.423348695302705 18.803724556315096
Bi 17.717437408572415 13.914140071802972 13.501984595698614
Bi 11.333862046652659 10.801158808801219 14.868200312020587
Bi 17.732321939633557 11.921309557669428 9.642918332967534
Bi 17.468713186240457 11.034829154871403 12.547707383117455
