39
Energy = -141.1132704 eV
Bi 14.738454368290519 12.03576172933552 16.05327030541593
Bi 16.420624956871066 14.283185504206081 13.91633584127935
Bi 12.765385737450478 11.10727148221986 18.262116290514225
Bi 14.433884137504249 15.10368763751114 16.49806982003016
Bi 17.496077874566588 11.841189717007694 12.170973331771291
Bi 12.045283777532436 15.976044924972205 18.347405996402724
Bi 12.678614730482794 8.30834720797068 17.043622518583465
Bi 9.749998908924782 13.981017915758061 18.410669623309754
Bi 15.278903998929692 7.9611817935099385 15.435457982213544
Bi 14.539575494606623 14.551002353012509 11.75425825553371
Bi 16.020971679224886 12.482690928280219 9.553682166966887
Bi 10.349867975761445 11.655310877580325 16.518827234656612
Bi 12.371141044178042 11.823949722358467 14.079774735276903
Bi 13.57244807740062 17.831885383840216 12.733817259466566
Bi 19.298888102569414 9.4569735472348 11.029612724776682
Bi 8.086951777571706 15.847422327497826 16.625778277511866
Bi 12.301315979786443 15.45301613348709 14.30867741644198
Bi 17.27459961904951 7.54476503150013 12.310170526620656
Bi 10.664669219126884 17.45823546479691 16.081304070311102
Bi 11.238138743351517 8.959859123512027 14.409255323148958
Bi 15.236360764726937 9.81736164841504 12.940548283179726
Bi 13.233053390117126 6.820607609233042 13.431405923010525
Bi 8.870536858567517 14.006956573894495 14.316485806277475
Bi 10.91224116263919 18.979671245380633 11.76239402115956
Bi 10.715112929258046 15.06771996696323 11.124963948613942
Bi 8.798608496629761 16.904203019370748 12.831664782045888
Bi 12.557514348267135 17.33659540077641 9.879046813482462
Bi 15.963278511961702 7.2741924837752805 9.565980352219666
Bi 9.755592003602116 12.016177190740818 11.579986878965766
Bi 12.95433055257982 14.113120275769433 8.04632371820498
Bi 17.482334833960046 9.777451867910417 8.660006101238903
Bi 13.081625594039831 11.732179927084122 10.123785584559311
Bi 13.359120592718758 8.363579607870207 10.729039752563617
Bi 7.025084966943246 13.373623062719902 11.856361946771422
Bi 7.914110186274838 15.785542745034595 10.12118247866257
Bi 10.018690190137274 13.861986692025148 7.328054691072711
Bi 11.89011612123748 9.99359027008747 7.844439974496158
Bi 12.141027907801709 12.256863518569158 5.769670753289481
Bi 9.19840617927727 11.22453464408429 8.641262231364347
