36
Energy = -130.52318192 eV
Bi 8.155459727758771 14.03828643064666 10.401634582733818
Bi 14.216604811414511 8.44621353591303 10.14052040207162
Bi 13.993323639070962 13.399958834779493 14.372949194490086
Bi 7.912334024310444 11.412026903634343 12.168139893417553
Bi 13.233051980492537 19.16052605105558 16.783740683623062
Bi 10.317509207848653 13.009909985310287 13.466454924854022
Bi 16.525243274289398 9.935216586789094 15.75143293048072
Bi 12.592962147547283 15.150442932572629 16.477333523246568
Bi 18.393554416256475 11.675259050355585 14.02466753982044
Bi 8.308097577982217 10.048920589713271 15.017792295915491
Bi 13.520210392061227 19.167220055363877 13.728971511803001
Bi 17.352911835481102 16.350532850108998 12.36556599465423
Bi 15.06316501099211 12.239476623303151 17.118666126203628
Bi 12.175916692199213 10.309668518590433 11.533102634326541
Bi 14.543622555088316 16.70629591734122 11.248287002770612
Bi 9.48351626863709 9.43440473302564 10.403308518881365
Bi 14.662589068142928 15.227993520279385 8.573902612999845
Bi 12.92983423353486 9.849990656412821 7.665106562636635
Bi 8.409249334439126 14.7451183830602 15.01691985929975
Bi 10.9425007460551 11.71681588222186 9.019688494456046
Bi 12.967145390806598 14.053020795183114 10.814632727983797
Bi 17.62855128597436 13.26710589092009 18.556542787172358
Bi 7.437262380118686 12.331526110556261 16.724370811918455
Bi 15.69388098274338 10.622714541567856 8.600309682859802
Bi 13.429739402963248 10.347702168845728 14.52275459080425
Bi 19.83662145470678 12.262130597850776 16.797645651718057
Bi 19.16428350530293 15.21296662820968 16.780389383009332
Bi 10.395514682719503 11.686086600356628 16.386173953155136
Bi 15.805498500911014 10.105267263158161 12.65659006043448
Bi 11.321930978101987 17.491584374700263 15.024739911986433
Bi 10.038233525346868 15.862398133257273 11.848709490967797
Bi 15.155216839510533 16.74508334621672 17.0613046679877
Bi 7.063788768655411 15.9162202302012 12.480553071790817
Bi 15.836824369105388 13.107042435155057 10.464499357868256
Bi 16.280415236436642 18.204672222254594 14.583829483329223
Bi 17.053561266241807 14.381448340437075 14.681076321795091
