36
Energy = -130.22485939 eV
Bi 13.998031401477595 19.396003799619137 9.555226271877068
Bi 17.32274194798053 12.865013958722557 13.222619522904768
Bi 14.104536519276577 11.96760126532011 11.535775079782011
Bi 15.645886903551954 19.86237861206759 12.072488814750699
Bi 19.047229351314474 14.596328471641533 15.059832222138594
Bi 12.904500085030897 12.714458052580659 17.29852310661737
Bi 15.594818454712264 15.573048660017433 11.503769628584742
Bi 12.359262252714833 16.990505326807614 10.48853492959887
Bi 17.76424402062572 16.839901099721395 13.372609953699868
Bi 9.751525179571477 11.2287103720747 11.832371763274667
Bi 10.3482164807991 13.869365726723299 9.51030442593156
Bi 17.870400630020495 9.946606368979634 13.592853025322274
Bi 17.32858062936101 12.03913646515537 18.5282188307039
Bi 14.599247807957441 10.81642206500184 18.97882283934684
Bi 10.770244604070733 16.4818198147002 7.942047982355788
Bi 15.651848332363347 9.265712065597931 11.591811490291787
Bi 8.94222119968626 13.756039790927055 15.774094059016042
Bi 8.276552618512678 10.87148925228519 14.392786538589524
Bi 13.657837394949341 15.473221010582325 8.174515804857634
Bi 13.407075178192754 15.445961259906115 14.979022837901066
Bi 10.853614297026269 16.389055906711203 16.258971017919002
Bi 11.231273276408944 13.406099868826793 13.713547388444203
Bi 11.31614831155753 8.207998868205816 12.759481382424047
Bi 13.691932907444967 12.41764000984976 8.51398336912642
Bi 16.42308337222113 13.026414523552827 9.851621632863814
Bi 14.162969117097946 7.742238192134418 13.817279267685343
Bi 10.281965923748256 8.844638967990274 15.56701217086268
Bi 16.37087178861929 13.960191262823711 16.340363806035338
Bi 11.592159257271026 14.99041860388259 18.874520665508623
Bi 15.972739395226817 10.81947983473477 16.074798533909473
Bi 9.5585204672551 15.36747896373715 12.058029222175167
Bi 7.651772329853853 13.31125322631921 10.87709096744985
Bi 15.173667714119796 18.011565538171922 14.45917680772447
Bi 16.66635965917816 17.96322993345421 9.9031125276789
Bi 10.047651766317623 12.41934680805952 18.278809936339325
Bi 12.712375042131688 10.324003625701527 14.513851686406529
