38
Energy = -137.75454488 eV
Bi 19.28078928034837 15.924550185411329 12.266642899652028
Bi 16.98604420340634 15.657188252046216 10.261573450299178
Bi 17.353617032428602 13.55770099304125 12.547192354470186
Bi 18.293450688951726 11.258155529164501 10.74878173791698
Bi 16.079146182666708 11.987527362220021 8.791546399424298
Bi 17.514778513439992 17.912738991100035 13.794428200190271
Bi 15.05333738399329 17.215383855133304 12.079386084572228
Bi 17.29527793430778 11.217643443510285 15.24748685555098
Bi 12.398418997621041 10.31312602824437 6.872379752575122
Bi 14.900668008808134 9.280812346523499 8.238781542297815
Bi 13.978883025313799 13.88217790667642 9.974324608157254
Bi 14.434270115521937 14.695499894429647 13.874336994344299
Bi 16.729415244401405 15.691640739824885 15.708718268950564
Bi 16.894570152438924 9.46648096591351 12.805133011150174
Bi 15.249667199890107 9.693558450714885 16.926005761293613
Bi 10.65633797160636 10.004808301333089 9.55070755889951
Bi 11.86965501811729 13.066947047183284 7.93751907885374
Bi 12.681824406286504 18.710524574202026 15.082712696065645
Bi 11.58752360054547 16.644985033823165 13.03034432690745
Bi 14.11021526652841 10.683653103276567 12.700349598747858
Bi 9.212903464700377 17.42280290985734 11.2234538548537
Bi 11.28507753889158 12.728385902892631 11.12111115907695
Bi 13.401173732003771 8.528328590022253 14.733502881777214
Bi 13.797972514805949 16.252233426974975 16.456809149938806
Bi 13.156395112705018 8.613400835369774 10.69075454199024
Bi 9.462321988544842 13.683490784812445 13.991860319102726
Bi 14.652091258001343 12.6505557377877 16.680131043394667
Bi 9.150069587141003 14.705470568839166 9.886190751577749
Bi 11.70202434842915 12.105047776068043 17.098200436766515
Bi 10.042755476845716 17.271655248857186 15.547028516235047
Bi 7.543751333646437 10.033964433068242 11.881430568604271
Bi 10.998058141073827 10.410963633711114 14.513944779864431
Bi 7.395329372385209 15.261679307920527 12.3422233177852
Bi 9.806495040348729 14.515210233925263 16.891831780222674
Bi 7.18268276959192 11.683067535263278 14.440960382738501
Bi 9.975030388324617 8.162845628549242 12.24668458314683
Bi 8.539821460072188 9.514168098766106 16.096296876440064
Bi 7.44354382098907 7.687013918665822 13.814621451288003
