44
Energy = -159.56239619 eV
Bi 17.026105303699072 9.212463301746558 12.974772915449458
Bi 15.35264996721912 7.732920830988978 10.867886198735068
Bi 13.078220721503074 8.89894321862878 12.518464371349173
Bi 10.356140501553867 8.912698204025434 11.096397980753931
Bi 18.73611051231753 13.833827605543247 9.554703417099427
Bi 19.143367819071614 11.786569610235896 11.748127202528927
Bi 10.394627371314732 7.903054267006014 15.158223156311792
Bi 15.557456858948797 13.581564966669788 7.003322157720111
Bi 15.14462246600681 10.797044419639215 14.840408351152158
Bi 13.647848002930802 11.40640759155352 8.046256486084046
Bi 17.208871554223315 11.005656198781633 17.101011822748166
Bi 15.042873563741818 10.72046225236246 11.018892638621942
Bi 9.5682073111694 11.220244417602194 9.243955613109842
Bi 7.230556482948333 10.462434360377403 14.400724494852964
Bi 19.982020413829865 14.785810347713758 12.168840434209265
Bi 10.967671930905153 11.621736023506143 6.598736688886959
Bi 18.721050673154814 13.486178377166016 16.07567400153257
Bi 16.1282601698969 17.342203982075862 8.536393519887865
Bi 10.211762864561194 10.622304484212425 13.661703688667272
Bi 11.019971849186241 9.195407611505 17.82018014830368
Bi 13.998273425348547 16.199332000911827 6.654774304468655
Bi 15.789439918231318 14.62809456872341 9.900605028075702
Bi 14.766497315547232 11.699097047404695 18.807531583336296
Bi 17.05206078146656 13.073276651664552 13.597781886098325
Bi 11.62165065244898 13.536693563681606 8.877337275751753
Bi 14.523448798642406 14.728889334683474 18.77048852550924
Bi 12.229104605025075 11.860205155228964 16.94425864564916
Bi 13.665432047057811 16.50862579206765 12.368770529384468
Bi 17.275662578193714 16.07262358728937 12.837689696737664
Bi 8.10642164504548 8.954293645265386 16.926014270477665
Bi 11.904482679254798 17.050393044480032 8.809774268388017
Bi 17.036960103038226 16.05878296074148 15.95717978533378
Bi 10.407618261176625 14.25686357437463 14.727477277276682
Bi 8.767814810632302 13.022586149038787 17.179523263974772
Bi 13.959773691871776 18.72417493727375 10.28025688876394
Bi 9.434515914705996 13.844794803724515 11.718977790547402
Bi 14.245061411462272 14.838329551528425 15.724120535540743
Bi 11.66109738811199 13.793339091121565 19.318111291658376
Bi 13.533728377221175 17.73679479580827 15.22422144171077
Bi 6.285506105846867 13.184210467831836 15.444209135447563
Bi 10.655949310564175 16.662112106006425 11.806797109420653
Bi 9.73177678927581 15.784349557333362 18.040281978778065
Bi 10.5076575610114 17.31647797281139 15.27758494043898
Bi 7.733594369656272 15.349652448685587 13.783482138247699
