44
Energy = -159.13565206 eV
Bi 15.449774447357282 13.702531562501443 18.31343085397858
Bi 12.936565623097948 14.582588335963562 19.844623740838685
Bi 13.138202245599588 9.108016879386192 15.69697905883527
Bi 16.92899508876762 11.03557725605796 16.202809475671792
Bi 12.252751409203176 11.716352085020382 20.817708732810956
Bi 11.045964874238347 11.311986877570863 18.0480617690335
Bi 15.400637917551613 7.044915040941851 15.519081694978464
Bi 14.378236456426336 10.917886921285774 18.772191030887104
Bi 17.536590804068325 15.866523847404347 15.4185063663026
Bi 18.9931285070509 13.19533421726215 15.47088650662295
Bi 13.598670436832762 7.547927424353937 13.089139810489637
Bi 14.166087119831683 17.43574324918354 17.36487682304387
Bi 11.220356528210619 17.40464461373163 18.292532842844217
Bi 10.132965501658447 11.163703905638238 14.280311700069204
Bi 13.711995415377677 16.532746588072005 14.462434944243041
Bi 19.844079135084595 16.388046461156968 13.43246198693263
Bi 14.513884289894746 11.55653111962751 14.441620520732394
Bi 8.876552018746073 13.640051226768415 18.043691556795103
Bi 17.631396982878503 8.714264359338891 14.340030582972659
Bi 15.635530125654244 9.771043354920117 12.178500296269528
Bi 7.57601205712438 11.895750860360675 15.940139404110973
Bi 16.992854779248805 16.453680307120123 12.429656439093488
Bi 10.007805811367628 15.620268107806725 16.084143108039473
Bi 19.628082208728966 13.45692008233976 12.51725767621442
Bi 15.600318036671979 18.822029884128504 13.83823951866758
Bi 16.709342050740222 13.01610757713326 11.603503389966985
Bi 12.261075689651369 19.76450143695687 16.68697984205924
Bi 12.5829458428057 13.794723181604747 16.891132744058247
Bi 11.082836574260158 13.938175584204583 13.048582766633803
Bi 10.615601566815783 9.331385177815989 11.78953456848431
Bi 12.705216405455653 11.409679330898552 11.356331610014928
Bi 13.927724518500789 14.692892848198936 11.057090046330053
Bi 11.412449394593775 18.55764142387212 14.003783036289603
Bi 17.942122069187604 12.76566785163455 8.82277699216305
Bi 8.056811238233264 13.161516227219883 13.216921734549516
Bi 18.50143549006312 15.646739234875083 8.012929918006996
Bi 15.610838919440326 16.434368078081228 9.009989038590726
Bi 13.366072927523632 19.79976610803175 11.948926902343576
Bi 9.772350577288751 14.113375827596752 10.201767954735708
Bi 16.074606615098997 14.250720971095957 6.9329255260158895
Bi 10.366145971532942 11.226325045821618 9.37272489161271
Bi 12.856101332281773 17.201720199058812 7.689581223993741
Bi 12.169965973247434 17.317936046352575 10.625147955553356
Bi 12.33004431802366 14.232818577023515 8.431178713537477
