40
Energy = -146.53228358 eV
Bi 18.260450984039608 8.92218609154951 15.74298584020163
Bi 14.611298802283937 6.3109345516133315 13.500605969749662
Bi 13.608320476588867 10.755488124340891 18.41086971075347
Bi 17.396868041727142 9.847942781043825 12.987040585446799
Bi 16.489688749149344 7.356607012415768 11.33109655333194
Bi 17.622437858835323 11.856673942468506 16.49340466093997
Bi 15.526023831079153 10.451887232867007 7.9552028156238475
Bi 11.8122793553341 8.905931652294907 16.753587910754153
Bi 15.304552246419208 8.915908663582263 15.056486577120422
Bi 17.154828556186718 12.353485938925605 9.707039819644386
Bi 11.765339358298881 7.217995168709349 12.681107861750728
Bi 17.654629282069187 13.711124099876344 14.015025133326738
Bi 14.606340835494654 12.129891553841516 15.866690434749492
Bi 10.636487830486871 11.329799137649012 18.192367671780268
Bi 12.418404341805246 7.389246502174068 9.648010152779031
Bi 15.35736049971932 12.767658689200786 12.178342468955972
Bi 15.493177837814624 15.103217923119793 15.708089672605512
Bi 14.41613213711131 9.43279528658121 10.575372073473094
Bi 12.619791506042956 13.32236444273032 10.046406057775659
Bi 12.07321647221572 10.076834527012934 13.837890430638927
Bi 12.817479840062365 11.744204196051069 7.429338724373043
Bi 10.745158054014045 11.007303201818733 10.83606093056573
Bi 13.156211690736567 15.354600993606699 13.667023290837209
Bi 16.261770245477834 15.19660146534034 10.496468108089195
Bi 10.779530462963104 9.528651377483921 8.163241388739142
Bi 10.91995031853293 13.089040045360777 15.723274770163009
Bi 9.12796027669076 10.939387645523636 14.495778274690384
Bi 14.222571265376938 17.855533217532024 12.282069593280756
Bi 8.157115151776235 12.244600401561353 11.878016750638196
Bi 9.335288799747087 15.55066550937526 16.655788991202297
Bi 11.973112059081844 16.949472366338885 16.04926648174314
Bi 11.565881612079968 15.624281337445124 8.369696795495141
Bi 9.874344222438555 14.678328984807944 12.455879766531902
Bi 9.060081992579875 16.21202378637093 9.987298429715185
Bi 14.110129097083421 17.050669998329607 9.344031224762261
Bi 7.674157938967423 15.901772310215474 14.13353272103299
Bi 10.780529085743817 19.529271720227616 15.032095634227806
Bi 11.987090383667159 19.884732713611644 12.24962917608881
Bi 9.362189644182278 19.072759264275096 10.885294904451413
Bi 8.097795346173944 18.864970656925593 13.678539033037536
