43
Energy = -156.13981883 eV
Bi 16.31507374593716 8.980844742139618 18.43763028292971
Bi 16.091219426301176 7.4635279536289705 15.830218721769022
Bi 17.375141181858297 11.758275993399264 17.2819241155772
Bi 14.52418242663207 13.171870769278046 16.976041060783107
Bi 16.227846844500462 16.984174531504806 16.49677447457482
Bi 13.361248174148075 9.7610379000595 18.427280210560497
Bi 16.380817477018013 10.421105270868118 14.754500027020187
Bi 15.15692979816597 19.600537493860422 15.419932051243014
Bi 17.980069152304083 18.71514614517125 14.693751874949658
Bi 13.142615401372 10.750849385327832 15.562828408054065
Bi 12.190437269897314 13.536252188896597 18.974436237071433
Bi 12.632864793808217 6.599429584774249 12.873081450489254
Bi 18.2212831509029 13.890589090644054 14.965058296044221
Bi 9.312545515711175 9.7081322590895 15.82197860345324
Bi 14.535814773278695 8.58581008436893 11.604473281400569
Bi 18.641958402034437 11.726247928821802 12.944158252327254
Bi 17.662429245158034 16.19781002432444 12.609266879023206
Bi 15.30650295126557 15.14353475408375 14.200929943912726
Bi 10.732882075449911 12.413822056841946 16.506650261782816
Bi 13.405256758952588 18.048725620056516 13.31598256239791
Bi 13.382412811695644 6.974383311383034 17.174873551493622
Bi 10.957032919752375 7.213199294058453 15.301921023819135
Bi 11.815307237160093 7.889856148074364 10.291093841467285
Bi 15.939465367093561 19.061512744512747 11.989753025342763
Bi 13.408508326962949 11.40808704400455 12.087506438945235
Bi 16.34803091483227 12.993982762854342 11.449833474823013
Bi 15.91609531565104 16.467690779681078 9.925876267640897
Bi 12.422276462940156 15.79276616221534 16.951637352122223
Bi 13.288671511289762 15.41072360525876 10.961342349466545
Bi 13.73713345519642 11.232008598628893 8.980524861701793
Bi 9.763790109794135 18.151348587085813 13.871588395847079
Bi 8.796651539847625 11.197572675531848 13.214790262844861
Bi 10.577333527286424 13.756743143839444 13.042256733809852
Bi 10.615538443260641 10.669135955525238 10.810845118353024
Bi 12.668545358346842 19.990634796266093 10.956438978177744
Bi 14.762999767911046 19.304121644524628 8.84792174509043
Bi 16.43060503528013 12.52766346532723 8.44795865220234
Bi 13.85042515073113 14.15696321076729 8.112771708872263
Bi 9.742206098006584 15.492081056849772 15.39603677208394
Bi 7.000054794552689 17.010245163515982 13.06744201026299
Bi 8.161185927306272 14.698508622953597 11.436725616414327
Bi 12.19891961870267 17.647404012884177 9.102729983475761
Bi 9.093179518940957 17.56913121435414 10.954722617616364
