43
Energy = -156.40850001 eV
Bi 10.632513042555058 17.454170655853087 12.182054435730247
Bi 8.617095235958239 17.44583143730228 9.904508835850502
Bi 11.272103525865338 15.200165572895123 7.914541646976624
Bi 8.488628387247372 14.403491624553766 8.879885107469182
Bi 13.45100290969075 16.31513456255203 9.74845536456626
Bi 15.117535177209017 14.952297782404239 7.5286105546108715
Bi 7.720184898929829 14.25571462591484 11.97047904842265
Bi 12.974668585900986 12.847702766002158 6.928672062019294
Bi 7.642007500411494 17.33771760981894 12.711981921495724
Bi 11.950766723042909 17.137874321781386 15.48719787748519
Bi 14.315882849596154 17.17880609312151 13.568008240910116
Bi 7.538426392197277 11.412517317778573 9.338050732180841
Bi 10.709280640684621 14.36720265289811 12.673022274122493
Bi 17.44579184975224 13.593147765458255 8.967488010454407
Bi 10.02320431038338 10.095826499091995 8.230474702821082
Bi 17.082362772559918 15.185456461281596 11.528689467130038
Bi 15.978538172154398 11.40567140759224 10.494183818690692
Bi 14.119123372351135 14.435553142656211 12.10751096348082
Bi 13.178978936297636 8.725192749316397 8.895669414147347
Bi 12.337056199729716 11.58566027376923 9.610331969851426
Bi 7.936199947986211 11.946884105371828 14.101505294099002
Bi 18.605810334462273 10.658244803303601 11.792246842285149
Bi 13.327300050149427 18.50873929888837 17.865780939883972
Bi 9.42286921397471 14.224441748857425 15.471810054415096
Bi 16.326926164505082 15.647588136327041 15.21360243327327
Bi 8.837617365243213 9.192784713710324 10.91315696251404
Bi 18.842844907083244 13.3469517627629 13.275146198866082
Bi 14.656518165215795 13.098019664176032 15.490615293094791
Bi 14.216436978146241 10.439815992374296 13.329568854971969
Bi 10.529042305129147 10.827857762278292 12.861622820646902
Bi 16.274360573616416 8.792312017580029 8.988691920951219
Bi 12.636407043099007 15.562660304080568 18.016428810985712
Bi 12.97361568029763 7.946970505821866 11.84193341421167
Bi 10.514403296779781 12.40323229427554 17.713970377996755
Bi 15.540548532018583 16.4613159581304 18.046561914590445
Bi 9.100619311778113 9.772396395340275 17.21772150008271
Bi 16.936045162885538 9.103220120983078 13.9056528383399
Bi 10.57665549054944 8.501043117467384 14.893017617153312
Bi 17.354855132043596 11.885634756532113 15.50851992941283
Bi 13.434433727591369 8.785230896805754 15.981761907113748
Bi 13.238809418801699 11.060369866063196 17.9776610745196
Bi 15.89634534163729 7.192389503195845 11.542241940942864
Bi 11.505158839753454 8.585735418896132 18.659939076497864
