42
Energy = -151.73196685 eV
Bi 0.3157309865467431 1.7182532766034182 19.85984707034251
Bi 17.89260487547467 16.96907512668328 6.6025074295846995
Bi 6.258076950576763 1.7329635979858753 17.20365849573776
Bi 22.275425186874514 20.770032542797907 17.205258096148423
Bi 17.77166407457478 21.934278497128208 16.58534355103126
Bi 0.4223140917362237 18.171237683261225 13.47587824569662
Bi 15.198327575400352 1.5605265970401172 16.057844365723405
Bi 16.08980716202441 3.1961494027280817 18.304515797117144
Bi 19.918023730582757 21.84955398964972 0.9446953637145039
Bi 4.125368650952028 0.4903344642908719 15.358583529387667
Bi 18.377532341885598 19.214706690046604 0.8142907775512566
Bi 17.64427683160218 19.775155063294616 3.688108677226571
Bi 17.119378236277548 22.284856127159543 20.315190843534612
Bi 15.959484487866984 17.182656013786538 4.34285973623355
Bi 17.350697516199702 13.8547706182443 6.59651323803745
Bi 1.6757641189135148 19.08974429336528 2.5985008288403835
Bi 15.449121730567741 0.034617786435431314 1.8490491957056607
Bi 2.801028046526854 0.027824882902153625 19.584496406297095
Bi 20.24940017063956 20.73021730751267 14.922801252977411
Bi 1.2462209411337895 21.859105557743803 3.7159516080734236
Bi 19.21048353284041 2.189490074866505 17.135238969271928
Bi 2.7132711808079977 19.208824789008748 15.114311736702517
Bi 20.681112135944634 21.756735613735437 19.651227166499297
Bi 21.436015173485252 18.855535150383037 4.26067532827271
Bi 15.703155904710098 20.219153764151265 22.10046128241723
Bi 16.442055718354577 13.925102510955243 3.703597177686946
Bi 2.5314672030469416 2.7554551109365573 16.6045033464919
Bi 17.804046583040982 1.7542434953430501 14.486819230626619
Bi 20.454946799324333 21.71093240077177 3.98708523277665
Bi 14.371452531469227 1.1656387134901427 19.73146204069938
Bi 22.25473031321935 20.405414149735424 22.007088891740356
Bi 1.8175740615037685 19.554989781108794 5.575397656656928
Bi 4.143375296177343 2.7264746706996257 19.203565607256134
Bi 1.639625235063467 0.5112690257858228 6.288200901424859E-4
Bi 14.343479996263696 2.377732816712349 0.17216619442312445
Bi 21.76241707472087 0.8936812511429147 15.583474900791904
Bi 5.058505105208673 3.336744921392799 14.938174753239304
Bi 1.3485492922380191 21.02895070960467 13.129625747414664
Bi 19.24826082590212 13.3783284907495 4.353546046491955
Bi 18.948359366350946 16.64826853886977 3.79246558976448
Bi 17.359862150474967 1.877857776895253 0.34130041297899355
Bi 3.0865661099387425 18.734895195676177 12.138410698310889
