41
Energy = -149.69289822 eV
Bi 7.606982491053483 13.342939207244006 16.182426060925472
Bi 8.318979512984074 14.525199088464117 13.470592886211252
Bi 7.930563331383157 14.938131532140009 9.827256030735828
Bi 9.267091717262433 10.669542989268095 16.23559797768821
Bi 6.928646835513652 12.162148417617122 9.731344480635727
Bi 9.53246941249938 14.12330161570147 18.434265072987444
Bi 9.13460506688038 14.771060760009245 7.127588503416449
Bi 12.126905557738263 15.555913915955918 17.628523049438535
Bi 11.400377305201461 16.935532624836174 15.022898227076107
Bi 11.323649944454768 11.028038185454475 13.999402472048665
Bi 7.012637912243378 11.845193369824235 12.78097345688635
Bi 10.826615056613708 16.855330283905612 11.222730233882931
Bi 11.359302988863957 14.50196790676649 13.152005696708043
Bi 8.871408062689245 7.914870203420744 14.58360506996009
Bi 11.188645843780444 11.52557832355962 18.569478896817923
Bi 9.781247879654556 11.918256397504232 8.383427603480547
Bi 14.308718586461044 17.52791879582917 14.299085520494314
Bi 15.509632291875606 12.245045745698329 18.131777055291494
Bi 12.185849085825332 13.256477921124677 9.816659580038172
Bi 13.026183322277467 12.84861310728906 16.519855545665745
Bi 9.18046907357955 9.768522544961275 12.178461115090553
Bi 11.90720838011366 8.137797218209366 14.888918998855981
Bi 11.686504565196229 15.933774547950257 8.398447010350804
Bi 13.806995807974248 17.655303506909707 11.260270857315009
Bi 16.068881672376293 9.733303785633735 16.464480191858918
Bi 15.82254608304617 12.70308443386222 10.94822183079657
Bi 15.339542311089447 14.667363947352293 13.98557493094284
Bi 12.797668739784118 9.683554617225493 10.565038546073431
Bi 13.446590523588368 11.963284266096768 7.3053596308852216
Bi 14.934605166638635 10.848967178611405 13.851944951806336
Bi 15.106381232220556 15.412451016433774 9.582439127369474
Bi 17.28214349148534 13.90696697649867 16.25694154027984
Bi 11.743514752481843 9.479508775554185 7.723394782102546
Bi 12.9620427602655 7.067601156126713 12.199550456441708
Bi 15.796719340221696 8.164273097160317 12.592318813754723
Bi 17.94647685572568 16.33377123624581 10.279108524962458
Bi 16.297180144770373 11.24509646302874 8.330709156886025
Bi 17.85219821609597 11.406515277741459 14.578737523531075
Bi 18.09300559934459 15.764672701588312 13.263928551600667
Bi 18.74959910805581 13.554715947042123 11.261307318988967
Bi 15.410809268413091 8.597523643160903 9.56029012922538
