42
Energy = -152.16167204 eV
Bi 8.356634834914276 15.730125237593345 18.79757178731402
Bi 10.832578447418987 14.223726597000086 19.76453797655697
Bi 9.071806481440525 17.972902033747676 16.78639759981277
Bi 6.785743105606983 16.85581796693594 15.12692123146039
Bi 11.800500215317715 15.092820086294719 16.993117398232307
Bi 14.967428953589208 13.89314723742831 17.992401615233387
Bi 9.343190415471557 13.245593817351383 17.351930005070596
Bi 11.942084797260266 10.380074015557845 16.633517251946987
Bi 8.056807261459356 18.252477336071756 12.766590968712082
Bi 6.860971068027682 16.06527262485288 10.940595100781103
Bi 16.274295023563127 15.910168503370771 16.33411737780808
Bi 13.370631795603849 16.779543350857914 14.206985016321761
Bi 9.64955498403149 16.16528455304272 14.37341084922147
Bi 16.350362283844436 8.606412539524678 18.238423569487313
Bi 7.713473939474848 13.707243627396785 12.667288620719571
Bi 13.442612956011429 12.83765027859763 15.608493989587592
Bi 10.91822546678454 8.907820514380006 14.13841176291613
Bi 12.33200425331126 17.274271734492928 11.291766036897943
Bi 13.461785945281141 19.558141706856848 12.897072319350006
Bi 9.525081731479391 14.658333738422504 10.427554250314719
Bi 16.711706122155583 11.145253425465969 16.61887026286606
Bi 18.589232077824384 8.718967948502375 16.205243925203906
Bi 11.755086310606277 12.415322889723177 12.65254550935765
Bi 14.61268404990227 9.061508994782445 15.780269553884754
Bi 19.03405825957664 13.721918387851625 12.012445460438157
Bi 16.98958185539613 10.69987910704401 12.57768564726855
Bi 17.176293326395864 17.547237705640104 12.572256082871437
Bi 9.988223029146598 10.367004855372093 11.341775926794112
Bi 7.801722818629387 12.209559358672987 9.997855512052436
Bi 15.743351486430004 15.024582482904707 13.443171745721164
Bi 11.980180032917604 12.002944097967719 8.061467398462225
Bi 13.348587138234203 9.783695362856143 12.485642756501296
Bi 15.068333827774735 18.46902146460173 10.58537498306376
Bi 13.18129264867657 13.701176445537664 10.273913799295299
Bi 19.836277000547273 9.644376996815536 12.547599980731546
Bi 19.68306237110501 12.494179939719787 9.307700077864208
Bi 17.574313247099475 7.822660504140453 13.445222218256903
Bi 14.77148943742171 11.328942800443976 9.089111484037263
Bi 12.487811724800741 9.307073909388842 9.510163139337779
Bi 18.300733426451643 9.805924161258707 9.942179506196425
Bi 19.084399102877473 16.35537936950734 10.462332715610774
Bi 17.160586244069215 14.14068006238213 9.686427149567033
