41
Energy = -149.22872323 eV
Bi 17.77296119850264 13.282157984328498 18.4604692071062
Bi 17.71642563550549 13.191397431821906 15.394286042458187
Bi 17.638922818311972 9.88200667477499 9.667000882822935
Bi 17.02934196699541 11.3089702162937 12.246597983929314
Bi 15.716541618359768 15.556643684913986 18.310642330354526
Bi 15.479618155713776 11.397756257499701 19.24611483894597
Bi 15.584631595256099 9.584176015277047 16.80907124471238
Bi 17.536764784794205 15.106758774361325 11.26951361163595
Bi 15.705896547975778 8.602935408454169 11.648869050086033
Bi 14.911714577728894 12.060262991363489 15.125020516988318
Bi 18.07556281570484 16.87516899305442 13.697079182786933
Bi 15.110194915333075 11.710834995155393 8.988356467392892
Bi 15.746309421932366 15.549675282505659 15.214871644454995
Bi 13.968244303541345 17.102472063253185 12.463765520691238
Bi 13.845453525761826 8.991639428736597 9.253026444626554
Bi 11.486568205629936 7.253888776825178 12.328657867644798
Bi 14.805655792458094 13.620742488595127 11.598143231319611
Bi 13.652399931382071 13.34379909553034 17.718315318061027
Bi 12.568213251427402 9.714885249316325 13.754340732634045
Bi 12.676337599613243 8.607163900562174 16.593014739308362
Bi 10.942597066996528 10.627674762211186 18.017159191446574
Bi 13.722426130483269 18.774186269561575 15.017482368285114
Bi 11.718578629897 14.304535407386897 14.35628860901134
Bi 9.550615867836521 9.356443774041477 13.58332756795603
Bi 14.41762505285382 15.305121892594975 8.732482288438154
Bi 11.817557916225377 16.713350547933704 16.26961946998386
Bi 8.572578633596105 9.366691268114423 16.49470412760913
Bi 11.386030790960335 11.995575186149326 11.168663901699482
Bi 8.467392068488785 12.455696888347761 12.237623596927683
Bi 10.888595025580315 9.156681537301573 10.009105127799716
Bi 16.61128540561206 18.03358636944881 11.285355068361044
Bi 13.269311441441747 13.168886435463845 6.9459929911205505
Bi 10.127262874865108 13.329293177763303 16.78072945297718
Bi 11.622265431414045 18.49931038217676 11.118155575180142
Bi 8.925818764594228 15.237110323802886 13.519757235542354
Bi 10.78163842717779 18.799376237977306 14.325726974416135
Bi 7.772165114972647 12.069770574549592 15.27828484800251
Bi 12.138448936976438 17.185012205041403 8.197359691514817
Bi 10.76717923129694 15.558140459826143 11.093038615806604
Bi 10.553715799917237 12.560028542139134 8.202009472143574
Bi 9.62084059440553 15.461879913064749 8.281664835337157
