48
Energy = -174.70804116 eV
Bi 14.823568352224523 7.945430437981568 13.797139952348218
Bi 17.26954502017027 8.256937186002483 11.933200501946644
Bi 14.72160664707226 8.501186040160405 9.017054117540306
Bi 12.194882197964608 8.314351115968147 10.690783073173241
Bi 14.362540678405434 9.607964308244163 17.175045654392047
Bi 17.474739251056906 9.08001370972361 14.864694416429606
Bi 12.859295693694474 10.169262208245371 13.076018645180714
Bi 12.914338898384411 9.220704865428614 6.649314726198982
Bi 10.884637445150888 8.043012119963926 14.103581248473478
Bi 12.097300672251265 7.5074007208735285 16.853546759489436
Bi 16.607607211550654 11.09777310175833 11.093615039068442
Bi 15.18222570436027 12.419128784285824 18.357124540513773
Bi 9.13754673730437 10.669845915651447 12.359576147340183
Bi 12.769363979980424 10.769215963759374 19.518951991319472
Bi 17.645871083987252 10.954805980077312 8.240346229524476
Bi 17.86032089245612 12.139454540455159 14.960682648466085
Bi 10.749122253902438 10.093271374720208 8.65850058403906
Bi 14.493966639373664 11.449046280948826 8.02916687745179
Bi 11.274344071370368 11.762746507847123 16.999511498968474
Bi 12.014460449531429 12.621448792603923 9.900919239468317
Bi 15.057429374546068 13.440142630892115 14.855985674189553
Bi 12.241443951094627 15.858097156433837 11.978137381569194
Bi 12.021317729025341 14.427234447196284 7.545685184402127
Bi 9.63241105251157 9.172244104856215 16.667698737449903
Bi 8.65402512870208 13.405895444122601 11.012979455963926
Bi 15.128868254309358 14.371293807526216 10.492788809607893
Bi 8.675694111777574 13.309354244914605 17.766091517210437
Bi 19.117537210833806 12.31339666854831 12.180670098602329
Bi 12.92036967909415 14.174544469889732 18.89582523756899
Bi 12.018739121545915 17.033253588648677 9.15771429029075
Bi 10.439253421976046 13.175110231425478 13.528350204337013
Bi 16.156008151949266 16.068617626650383 13.58617328981176
Bi 16.667531957064554 15.41435989742884 16.540108028515032
Bi 15.292216686595774 14.868949026540257 7.460585697208683
Bi 13.991745730821908 18.274061081043595 12.650114405976376
Bi 7.865383340270143 14.08001958342156 14.914035088626713
Bi 12.358654333227813 15.62361090348834 15.94993908964845
Bi 18.31209121564392 13.861743707384768 8.012413576930262
Bi 18.185373194989253 14.932656817298295 10.893953627251653
Bi 6.5320900886708095 12.168673415072657 12.885072655945196
Bi 15.073524764815042 17.2743898230006 9.40062152017765
Bi 9.860582085250995 16.134107373850814 17.62385217916451
Bi 9.477768142753495 17.166674826823865 12.431995594523155
Bi 13.063789285866847 18.584410448810313 15.659994716268315
Bi 14.415281522703202 16.873345735929004 18.007137135518597
Bi 8.382932010628245 17.51797238709913 15.284068467101628
Bi 11.014452089453 19.788715075490146 12.762146579508318
Bi 10.26485283951834 19.918008436639287 15.682817767215557
