44
Energy = -160.14152677 eV
Bi 16.64188910796381 13.396767126912017 19.684567185431725
Bi 13.717913750308412 12.52485761319941 19.515176092400413
Bi 14.403384154051666 9.28536037605452 17.778862561204555
Bi 14.566085913330095 14.973152791494956 21.206069799771686
Bi 8.515218681153227 14.87781558366944 18.543183382338533
Bi 11.412873329788155 15.883945039831465 18.861262202812277
Bi 15.910110848745214 11.640459403382302 16.507753787208973
Bi 15.502930805686702 15.98592465234086 18.466272564321756
Bi 10.492621959499568 12.288242657433889 16.622929735406583
Bi 13.300899609930275 14.346565593236104 17.026222480843902
Bi 9.539280306611166 17.19303212876826 16.869822421900682
Bi 17.323239031375408 8.992737378627826 16.976840838103282
Bi 15.279942958948103 18.298432342686908 15.706504396343668
Bi 12.623871724263187 8.62128197497206 15.372729748414935
Bi 8.859630840755383 14.543033720095403 15.47826746974336
Bi 17.969580048439084 14.400357023613019 15.098059484544006
Bi 11.465009887519747 18.604346665085377 14.227526561149876
Bi 9.521577535446857 10.668854359087025 14.186096979008465
Bi 16.89683028154791 9.954477221090068 14.075098198646355
Bi 12.479049392647275 11.46360263926135 14.334685484439623
Bi 15.801365736303834 13.678081232222944 13.01905239114943
Bi 14.886889558179584 7.714184176238441 13.592878565954734
Bi 8.22028351162523 12.705586521283044 12.281170583472225
Bi 10.709085091642583 14.498663516970511 11.924538060481378
Bi 12.692429039244415 11.015801491936639 10.856800651241537
Bi 18.68259438974929 13.866263089894094 12.151105951415477
Bi 13.537954056726303 16.39703743104637 14.06272744583419
Bi 17.908104224909017 17.367362344756994 14.40205470432353
Bi 10.058142428990978 17.488596129669855 11.703575230366063
Bi 14.215986832107891 19.137681630846572 12.958503297975046
Bi 13.131882044484414 7.9931193197388515 11.078269554251555
Bi 12.674675333750255 17.397075713855962 10.16081278450444
Bi 15.097240883944576 8.674938559950938 8.818659219121889
Bi 9.308717094658013 14.764917438500904 9.158679609788939
Bi 16.812479338615976 16.26752271028227 11.714372652960087
Bi 15.979631959397866 10.720968400437652 10.784461249717518
Bi 9.520108976612942 10.6453546240055 10.43929339601104
Bi 13.188187272488836 14.370914422692946 9.368284634118455
Bi 17.461007475788392 12.516058528018235 8.807296618437208
Bi 15.93078375716246 15.105563373798615 8.27446744008877
Bi 12.9938536246753 10.870773106006723 7.765400748020528
Bi 11.544396159256108 16.162937790333118 7.597303064038809
Bi 9.86573894558319 12.077465826286947 7.871924180224955
Bi 15.32135435994068 12.584718594232669 6.635268856316914
