49
Energy = -178.73647406 eV
Bi 9.987993856888199 18.880145300167463 12.744156065219386
Bi 9.851484483252724 15.905935080135059 12.025918396735893
Bi 11.609803131294274 17.51833239210038 15.025235358253273
Bi 10.79672666351186 15.902642114916477 18.611634586220376
Bi 8.583135637761231 13.636273809892684 13.702428289163542
Bi 8.529985533770756 12.620614640866222 10.814738801138933
Bi 11.478651725995439 13.447861613746142 10.202106883470893
Bi 11.672049806673916 18.709217982935908 10.209275555287043
Bi 10.851384481163585 16.07305311313487 8.68730797050962
Bi 13.99242094668236 18.2838158575423 12.16411343788431
Bi 9.518297876776876 15.283023998499486 21.310428380207288
Bi 12.928177731374591 15.538827996359409 13.130103271063192
Bi 11.975067124731513 17.036294495685237 21.166863083372114
Bi 9.620309679005498 10.188619873524683 15.748273460370706
Bi 15.825782258871868 16.997391059431255 7.56286030076874
Bi 11.213541190958068 12.087589470655159 13.989472937824562
Bi 11.977468334786959 9.454281366839027 9.527497363786622
Bi 11.113603380544914 12.491868552510457 17.194740525553474
Bi 14.11000268961263 14.999523131873685 16.779069500821286
Bi 12.197975581418747 14.066953516694623 20.58339836047757
Bi 13.02792246139069 15.97310906093038 6.466229987113849
Bi 11.447829865506831 11.854479750090798 7.674537595978534
Bi 9.888708917059263 10.061367460540742 11.722537031347214
Bi 16.25097925350595 18.66201724268228 10.113717849106639
Bi 14.135044526460966 13.22443347159614 7.107318290039842
Bi 13.858466974861486 19.341802917499948 16.0529334647814
Bi 11.717159749556343 7.974911651004372 15.800232342150862
Bi 12.201780367399435 7.535751937020944 12.80820141866537
Bi 14.521779727110788 17.568906899640844 18.458766622810025
Bi 15.581014011964973 13.18482042631944 18.772352671240558
Bi 13.3763386764872 10.933842307098102 18.464582797001082
Bi 14.004848211883248 9.942271019389116 15.620316169339628
Bi 17.597930715223054 14.559418337189273 8.505198414708342
Bi 14.420596299334145 15.048231137019355 9.61817496300723
Bi 16.130142815300605 15.470854902760342 14.538508262441239
Bi 13.78204666578158 10.042523245146155 11.972628945288397
Bi 18.326950099836342 16.521388813047036 10.792333661029184
Bi 16.471650453960258 18.487118839816223 14.736240823807934
Bi 14.883605786081302 6.101542287155364 13.297842990068757
Bi 17.338577148764205 18.501313931800695 17.74873756915296
Bi 18.034442484345373 15.654654031477635 18.446135663633143
Bi 17.291071953748403 11.147894139911838 17.252537133895277
Bi 15.951494844377462 7.614408866076098 15.785194797130773
Bi 16.771263168487856 14.01560297081239 11.422306055810344
Bi 17.01814357038742 11.77262767847888 14.288249632989546
Bi 16.14562862858966 8.131702209378606 11.386840235359216
Bi 19.046890068208796 15.370886987179388 15.72572531027838
Bi 19.624896810449336 12.379373204167424 15.741912256862005
Bi 17.90472592308375 8.894335087057945 13.783698650001853
