49
Energy = -178.64343151 eV
Bi 12.108649901807372 12.303324143295843 9.67556727822136
Bi 5.747495319936901 10.21813118052679 9.876806801861912
Bi 15.128021858153426 15.15171811952875 7.801022252119628
Bi 15.735429174731378 16.762449493951973 10.316924004788005
Bi 12.20453125006836 15.175187820507658 8.687723650777457
Bi 14.085582519087433 10.62233933669281 8.047217759743502
Bi 16.21658214016822 12.601091644967992 9.065796466620409
Bi 8.33984394013412 12.83638771923114 10.048692529619233
Bi 8.542665534701744 9.216390564863902 9.204899584977316
Bi 18.61053132608957 15.555809510088963 10.546426771748473
Bi 14.884824018359483 17.87227613787312 14.418657113751403
Bi 12.397380009709588 18.364593592835806 12.631490486731057
Bi 6.905632182819387 7.827702103612808 11.352285811283421
Bi 6.327834878194147 12.249491519708677 12.216500896631754
Bi 14.636912928490121 12.276307614047536 11.684981164889013
Bi 17.99290076589742 10.895438093128348 11.79953046466323
Bi 10.163004471992059 10.336840653299113 11.635473797212416
Bi 9.189150072108278 15.781929610669488 11.087513902631066
Bi 13.136327761272469 15.545015059964419 11.616453161904863
Bi 14.672328721702725 9.280969217969941 10.750078421285165
Bi 20.412511860938736 16.743835043276043 14.98031201425475
Bi 6.031628911022648 15.032974611638094 10.931759927890976
Bi 12.072281442380081 7.854580779404586 11.487971774984224
Bi 18.438969429196288 17.566824232341627 12.878730846723764
Bi 19.151363154324102 13.476119776130783 12.767839412804772
Bi 8.018516387819542 9.502914419985254 13.714079136798597
Bi 10.502841912024547 13.638339914606142 13.003686467730024
Bi 9.886673997468444 7.866765003177942 15.53299263739409
Bi 12.367530856363455 11.226997652436827 14.523142585729316
Bi 16.532805172795275 15.127802913643901 13.466412046578396
Bi 17.8965137466173 12.009620690640563 15.710172771463412
Bi 12.758972442624204 8.112259993547871 14.400675365542414
Bi 8.072909496952668 13.442718073749992 14.860021786735153
Bi 16.64241943681149 20.188046671290135 15.597470375985031
Bi 18.804559687112118 9.416229340444596 14.35739145381516
Bi 19.43573831190176 19.271761053267213 16.377886632064104
Bi 7.32407903636209 16.129348931956713 13.480803777675192
Bi 13.440544836974397 17.167520095452492 17.01965366889522
Bi 10.92651585221944 17.6862507405295 15.223556122863187
Bi 15.839268877860462 10.055952334201214 14.529378726152396
Bi 10.831062144693066 14.727556958217104 15.871873458110036
Bi 17.713409543242747 15.614128603251666 16.39526572179067
Bi 10.082521802269568 10.760716044578452 16.52345438184613
Bi 14.949323274847591 9.383044499317645 17.487786511878856
Bi 16.908966391079918 18.239009343926906 17.87458039581791
Bi 17.101645390187727 11.274740489016903 18.592732446629203
Bi 14.310645759097861 14.294032785774698 16.127123816300738
Bi 12.892362413160612 11.588796049636008 17.584545014019714
Bi 16.034299392200396 14.134229553766199 18.64116813603876
