42
Energy = -152.78033269 eV
Bi 19.359985357878166 10.158197947992733 11.566434756368286
Bi 18.754253792483304 10.203671031178539 14.53667994920455
Bi 19.8020174894767 13.087304191048634 10.87924983102583
Bi 16.0120653491967 8.708841827797382 13.993075573409271
Bi 13.435041931211169 5.791357047031658 10.377624958240869
Bi 14.10212640934047 11.064609365052195 14.544246437329358
Bi 15.287602333354785 7.815952127433517 9.12694771205335
Bi 16.824967481311926 13.952121493967068 11.128459535336331
Bi 19.650164677678426 14.434758638260954 13.612811851470507
Bi 17.192273498283495 13.364311147035309 17.422593318901598
Bi 16.22696727194303 9.959221907881428 11.206019033073435
Bi 11.557943683406595 10.027722655491306 16.04548256844558
Bi 12.936127636525889 8.037735410902556 12.430722513198594
Bi 17.19841377676325 12.795311950933918 14.433213659802277
Bi 15.669138730133707 16.0207233402237 17.19666060311453
Bi 17.9154634344125 16.608607277094535 12.283515940563857
Bi 14.590043137536663 11.707924467812278 17.55436510382962
Bi 12.325697661947412 8.454672507200126 9.424814697393545
Bi 13.27713364577034 14.226883816247838 16.45795564569616
Bi 13.763643185776445 11.974317266661897 10.319546145536211
Bi 14.920461634053243 14.368369181769845 8.70601220278282
Bi 10.138787165082123 8.566859014285344 13.829219137529929
Bi 15.439010575942945 16.1381394697716 14.106282262978885
Bi 9.339992376995296 12.42414420619225 17.106777030339604
Bi 13.13296809579019 14.197495282444876 12.397038325578041
Bi 11.204047623048465 11.06063784108237 12.347443590531501
Bi 11.048263427402317 14.613846228839257 18.46006439489337
Bi 9.751607918293097 13.243975114807549 14.192801001659111
Bi 9.86681298381922 11.64888468338339 9.670867939134775
Bi 7.529016051301705 11.262182332963997 13.679788613730379
Bi 7.030852595161367 12.187528568006396 10.774951352652868
Bi 13.502453747286822 18.55575976789243 14.491741776569048
Bi 10.53677175595467 14.563095012491306 10.503057169177264
Bi 14.150992865417603 16.586327373132324 10.705661030488752
Bi 11.226992183001272 16.512145100636964 14.20726695475191
Bi 7.470381974392951 14.986021876030524 16.831603736258508
Bi 9.793610611688536 16.960377962170174 16.91370499143031
Bi 7.650499323005166 15.194704229505968 11.24278322011982
Bi 6.576819162271875 14.248614952723191 14.010756184536845
Bi 12.308926532653306 19.879690843475903 11.955172741407734
Bi 11.437824037605445 17.78653245651233 9.845788726667925
Bi 9.678443302143025 18.342738172070185 12.278305137680045
