44
Energy = -159.82001573 eV
Bi 17.888577024276213 15.63303316259824 8.214062013026366
Bi 15.007379440356317 12.32795431880153 7.058493283193142
Bi 13.089261103279455 14.713920278504528 7.232414419555124
Bi 18.291156973774193 12.582922876255875 9.384474643719942
Bi 18.562778571221042 17.584841518318594 10.441655181209287
Bi 15.154496120921396 16.524072484761717 9.048457804774957
Bi 16.63974913583073 9.9407440427074 9.903052372114022
Bi 11.160446532862782 12.716561286115084 8.186924099491677
Bi 13.66132308544858 10.763756603383802 9.38557957115836
Bi 15.332061964059578 13.330810985412223 9.91078089317708
Bi 11.665540566272574 17.601772685551165 9.729462027018638
Bi 19.23553851655568 12.929957765379966 12.281429442359237
Bi 13.374148639114193 9.29302072520524 12.801508368224239
Bi 9.187539326555031 13.834253767418742 10.220955592100013
Bi 16.009155207145398 16.91375579254283 12.085295237941997
Bi 11.832215540156058 19.706450465005773 11.960617934435332
Bi 12.517628648742646 12.196671011360007 13.109917153240666
Bi 16.439758478643235 9.533293074970935 12.918099709998579
Bi 10.20340048095205 11.203174035074541 11.408314490241509
Bi 16.495050217848306 12.520438142396781 13.482885654611263
Bi 11.162050140282803 15.459703030322677 11.881747883008545
Bi 18.746141279930317 15.844648741371202 12.913019304109259
Bi 10.246487413464369 9.037999443477169 16.033158804158912
Bi 13.203646133971183 8.52551507901036 15.732659246756109
Bi 9.37483178508717 17.944274761217102 11.66713902490462
Bi 18.019422077546384 12.059244519666331 16.104507505619345
Bi 9.825708880572263 11.6399722668129 14.466694010620952
Bi 15.753892231492857 18.507694911463588 15.177521383295742
Bi 15.428367390307308 12.288149328744145 17.732321941305475
Bi 11.346070870315708 14.932500231063496 15.790837535743526
Bi 15.361065067230943 15.542397461932183 15.814682489885561
Bi 13.049017971746826 17.728431383609006 13.915272271637818
Bi 12.243761080322278 11.060374731371951 17.20018493702155
Bi 18.075657797321455 14.970564548342898 17.10327857720109
Bi 14.192141472095768 10.084479440607046 19.43456600060786
Bi 12.687800698889552 14.577509145151348 18.70644690568383
Bi 17.21546238719989 13.576516380523147 19.754696417400563
Bi 14.38954290713829 17.65495977762876 17.8409619992066
Bi 9.094560425593164 14.108756730308707 17.602841256453253
Bi 11.583264658821735 17.87866680147516 16.609895946223073
Bi 10.578337857253489 12.672271692419473 20.046146743922698
Bi 14.787283066232238 14.786608450610855 21.10892704219038
Bi 13.412697903176344 12.163385622273665 21.556953286898878
Bi 10.147039529418176 15.678740452321225 20.01366558511375
