44
Energy = -160.02280644 eV
Bi 16.918114805954726 11.587017074399665 8.149614820184167
Bi 15.792605420553842 14.164729515375255 7.028442833516856
Bi 12.01054328458798 6.977562317854561 10.400004929485013
Bi 12.889222252779684 14.0716987789599 6.026671131673985
Bi 13.786869931028612 9.051438019865532 8.960263300424158
Bi 10.773214076821759 12.148630850777218 7.1229154370477055
Bi 18.807999087167193 13.738874078748125 9.275090413535565
Bi 17.855820960112855 10.248220577469137 11.990255892418809
Bi 9.592764755301141 8.801885092620486 9.960113988563542
Bi 11.867443922369068 7.615662033417295 13.410339981524688
Bi 16.6948932237686 9.819969372755535 14.80044219098054
Bi 18.92863304204948 11.577227466116076 15.97727798954304
Bi 16.42995676120962 15.758971299053831 9.567142551114681
Bi 12.93173070803055 14.67814772317755 10.354091029023781
Bi 9.345074600094023 14.643908370051173 8.219383238518756
Bi 9.08667189069297 8.80483149212234 12.992767219610624
Bi 18.81164214726244 13.12202850418091 12.282306476472577
Bi 11.667580943449124 11.074411337905467 9.845623056427314
Bi 11.953377372393037 16.259148884657606 7.916239958051199
Bi 15.256491260822258 11.174343056649214 10.659793013655454
Bi 15.948823278410375 17.199813013201965 13.20631623356787
Bi 15.850836741471792 14.271069579367138 12.242279710741078
Bi 12.8021964406686 10.515664223020915 13.274456187556703
Bi 17.360909459808553 14.17657633460886 15.441760250060556
Bi 13.496150862525628 17.55600108713893 11.300269565597526
Bi 12.641464704071401 14.738563408982595 14.30981126699466
Bi 17.480038925399178 12.586984843743023 18.44337232115279
Bi 8.881215527666654 16.505940367560353 12.517882383303713
Bi 11.72751959651979 10.66341810217669 16.240769461497518
Bi 9.995787269604815 14.004717329904894 11.17471620152525
Bi 14.803447032155342 12.224850035463742 15.308951935489693
Bi 14.901483236533089 10.95263753143681 18.078669277696296
Bi 14.286998793137638 16.83822065188055 15.818678602735
Bi 10.004230358928492 11.669452226620093 13.9329709476799
Bi 16.00624928486552 15.496698517164077 18.036153873304325
Bi 11.727187427909447 13.844717328829308 17.253756866389867
Bi 9.09275860910211 15.002247601584696 15.265315310517202
Bi 11.502159341051897 17.506836026101322 13.691742574672919
Bi 9.09666515992801 13.287953204771553 19.124644258666102
Bi 13.982095484406805 13.580264973176394 19.465230906889925
Bi 11.82921726849091 16.82894262024777 18.509376273802935
Bi 7.304184701610553 15.310684619771669 17.848432434481257
Bi 9.265878282191913 17.473544481440893 17.034979112229806
Bi 11.117219805314333 14.86281619445427 20.657575767750394
