43
Energy = -155.77418517 eV
Bi 18.370917897380657 16.1464025198594 18.201906883384623
Bi 15.885519110837828 13.971879361271773 15.700345430711845
Bi 16.0908133679781 18.102268273813362 16.72120968374345
Bi 17.934869049326238 16.203304236928478 15.18991581184532
Bi 15.37109782830186 15.595815912125753 18.27454633443221
Bi 17.231272671467124 13.067692513501267 12.379563778405295
Bi 18.268720447069782 9.927720433773041 15.207844795800689
Bi 18.18637613640305 9.62033004180613 12.199503545555585
Bi 12.648030161150535 12.287265143469329 16.858621338240052
Bi 14.778408083774549 10.111696509023622 16.388727249167154
Bi 20.161485329579484 7.993651677170857 13.8469836474523
Bi 9.626580976040707 14.414883141976967 18.941674648142342
Bi 11.804592209241473 16.124172510527757 16.166248288647836
Bi 17.19897749221412 7.3769974552169595 13.980152365320144
Bi 13.6380734392046 18.07990294784683 14.739404020454016
Bi 12.12083170514274 9.572694596556396 17.906993513841677
Bi 14.441225507418176 11.783959278626265 12.59090909273555
Bi 15.599194820385641 15.294306825541335 10.836233552019975
Bi 6.73453605555855 13.559295704357764 18.960383407340217
Bi 17.59939037055386 13.490301869613194 9.364852487054563
Bi 13.682331469357797 15.166429153818243 13.918732624372373
Bi 13.427336300131751 13.258010235762764 10.095243872631716
Bi 13.53596092780281 8.121387364781631 14.447385070450919
Bi 11.422734662871964 17.081364284180186 11.486721208800578
Bi 11.138538141684345 12.431388052406374 14.020683762595157
Bi 10.826669019801276 9.425658007313547 14.95115731340944
Bi 15.364480662160775 11.767288944806118 8.272944157487881
Bi 9.910126075905259 17.437629140488532 14.143503588631294
Bi 15.100040461172078 16.47784246382584 7.492400568258108
Bi 14.372420307543727 8.919477001912226 11.604833485644495
Bi 8.95045338364041 11.578794979337435 18.114550517791855
Bi 15.45630989049975 13.830824904744963 6.010862173540556
Bi 11.60288851410217 8.999467185853359 10.266402950767544
Bi 7.866453840618453 15.034750601296231 16.520090087060307
Bi 8.569223187119702 16.98476921542354 10.301971606502057
Bi 9.651389446820874 8.00675396931989 12.374046660005936
Bi 8.294143228629913 12.300001832965243 15.186823637193433
Bi 9.622740919929058 10.877768015555166 11.61129882184649
Bi 7.978923455087453 15.419601184508924 12.868711900345694
Bi 12.08687132062417 16.062220744988547 7.914204933187827
Bi 12.48857479198349 14.312482140574637 5.430625572540543
Bi 13.033095450714196 17.29130004588779 5.320621436631542
Bi 10.06831880532278 14.411282969545866 10.813944208819072
