41
Energy = -149.25082451 eV
Bi 8.989304402602256 9.457039958413306 11.269483759140526
Bi 10.675887204148243 7.820109687982656 13.227009665580777
Bi 6.819168601879856 14.288483027820503 16.834898145024688
Bi 8.831420432668052 14.451522721487477 19.127724788256078
Bi 7.789592427613772 11.905601758263089 15.124865731250155
Bi 13.481969294812556 7.7321122146184305 12.03994850052031
Bi 9.990864665398444 9.265631334713447 8.386235430020779
Bi 7.432110606144511 13.150720315413686 12.331685145792742
Bi 10.188306406087461 12.335312417870904 8.456347783266313
Bi 10.871991265091932 12.27645162807373 18.362915764528665
Bi 11.852470067486525 10.3699827801711 14.395712616764396
Bi 9.35695921109282 15.91986865071092 16.515503138943718
Bi 13.485445239177892 13.853554457246023 18.321782469694472
Bi 9.419421262612634 16.16931293139147 10.361502531496306
Bi 15.153831370091213 8.767784516153577 14.427504745032818
Bi 13.725381877062908 15.059112417752003 15.461303953225809
Bi 13.136631860745913 9.008592174844406 16.76485147494686
Bi 10.545596828381548 13.1095900305473 15.462472485224762
Bi 7.980167016851568 16.084851975636223 13.122079673737241
Bi 12.696474592085066 10.63839941838846 8.2195595596619
Bi 10.266574731544168 12.231143544772666 11.508552307436098
Bi 11.376491991663551 18.426681575618733 13.515914638699108
Bi 15.792032022982275 12.849543758173596 9.176632906742787
Bi 10.936313299367638 15.449608619153967 12.942896253033718
Bi 15.035983098946689 11.386737565892338 17.2680980926718
Bi 13.860251728007649 10.635277645193217 11.0522674787696
Bi 18.18424067405873 9.167311393952728 12.298236790653997
Bi 13.936679412321595 18.119060275062004 15.190427260608399
Bi 12.790332976424548 15.755221201433109 9.374491646513473
Bi 16.270769428454326 9.021334398936153 9.899059055334174
Bi 11.595286732932452 18.393770490755163 10.428746717226247
Bi 14.946856213663034 11.923914358997823 14.223891148589349
Bi 18.093449317922015 10.95404837186349 8.343447211229357
Bi 15.512489300912122 17.72157228231546 12.649182195437952
Bi 18.03221543195516 11.985758983517877 13.612689843669877
Bi 15.86036607619606 15.970540381635226 9.15983524347858
Bi 16.70048321305887 14.477918904831872 15.873952520280897
Bi 19.952986635820075 11.186143457904544 10.769260861474004
Bi 14.561954991642137 14.960730501206877 11.75034531067203
Bi 17.86444345428227 16.003720732392793 13.622725288719419
Bi 18.034619172517097 13.743741675599608 11.153774403356687
