44
Energy = -160.73278947 eV
Bi 13.061505865782049 16.364683369214113 8.799594364739008
Bi 14.747766911141431 11.843012812379014 9.056780998931476
Bi 16.93224677295787 15.155436612616581 9.87460422037992
Bi 15.469738126106527 20.057372431609245 14.276100872368277
Bi 11.77853218730812 14.712891724620345 6.606731883847457
Bi 10.069723743887161 15.67872195764442 8.92066642333426
Bi 16.102034789813306 12.120158212856037 13.102210762245177
Bi 17.77473236994946 16.76580260133315 12.338241451385882
Bi 15.131064549807249 18.32725069227927 11.804774906683107
Bi 18.410980593781634 13.406920538057555 11.837251066002347
Bi 12.536273864915692 11.809285324295688 6.956388046376162
Bi 14.161420839846087 14.293710961940311 10.794416275401455
Bi 10.465261091856922 16.565335325176108 12.398879902681063
Bi 16.314682880405687 17.906496907656013 16.35597690931443
Bi 13.320642615417556 10.289870457841396 11.309139444250475
Bi 16.236956982602585 15.350959234652775 14.61965391229942
Bi 7.6638126026766225 11.83211095793044 9.000903119904233
Bi 10.6546886546803 13.7284535232819 11.218922508559686
Bi 13.215915921294345 16.71127063290282 13.664583096057767
Bi 8.872240043306572 8.285179618093762 7.4420160510984354
Bi 12.613100344217548 7.759122372638045 9.752671918163664
Bi 17.90288012763228 14.06836387726246 16.82961054186137
Bi 12.532088637627194 19.401677478023604 14.9253859102432
Bi 9.635733304961242 7.150983262182857 10.16159565749797
Bi 13.487886249024422 18.206197131812882 17.53531345196195
Bi 13.97440466983004 9.7754734142353 15.101229530408235
Bi 13.466073225744129 6.273662998396553 12.262739183203054
Bi 18.15170136989511 11.431475968191503 15.238183372721023
Bi 7.660205056520153 13.344061987945471 11.662850282738649
Bi 9.51804417849177 16.060127704356425 15.300565633510196
Bi 13.387119899025917 13.244425214396815 15.718223931261594
Bi 10.441568104018689 10.560222450453857 8.830134114588542
Bi 15.487748230490382 8.629954490986766 12.69179817957047
Bi 15.319016142017139 12.960931382296627 18.08371110245298
Bi 10.468784241298641 9.845601154727708 13.376391329930195
Bi 7.149941365220358 8.97327075787611 9.843281613780869
Bi 11.91377252029331 15.560300041487297 17.203326953236264
Bi 16.195007886581124 10.132445472816059 17.20200116054927
Bi 12.445391526880456 7.484374365234499 16.401244831507153
Bi 7.692403069844372 11.207385915981376 13.842615792564086
Bi 10.004964142751653 13.067281521201439 14.761456327349201
Bi 10.920671338972058 6.770585750524223 13.841567801597808
Bi 11.119049160710476 12.149805679487221 17.49765092059812
Bi 10.118036391527342 9.4664993521485 16.418530601410517
