45
Energy = -163.49901043 eV
Bi 17.36089324231444 17.914480821273226 16.002997843668613
Bi 18.49780107535639 13.306587384107289 17.788962712184215
Bi 19.19864461150676 16.01706210880417 14.440680553836133
Bi 16.234057047383423 15.328964734192953 17.26428171104693
Bi 15.212933668868022 17.878223932776745 13.76034387368974
Bi 17.75596431786636 17.366587009001044 12.12272470823018
Bi 17.382801186016373 13.55366693280458 14.978477948475712
Bi 17.417299215277794 14.897321454078185 10.387320670454782
Bi 13.19072327021285 18.38097579097047 16.83476317021277
Bi 16.62440871986288 9.856668938574431 14.10549038551635
Bi 16.08713298702245 11.839747467224091 18.975928138063363
Bi 13.303317208540902 16.228319654121027 9.732566947226298
Bi 14.24798555445889 12.22013043478726 16.542791379037375
Bi 16.209610064339184 10.353541864646974 10.884234502331244
Bi 14.151261758169648 15.062609045956895 14.194974484687007
Bi 13.128330264528195 16.007774005117888 18.78610488431125
Bi 10.765153207623058 18.10369806625584 14.957160971314188
Bi 15.95980966507768 16.38694122021682 8.161571176637645
Bi 14.060324741884155 13.956888354383779 7.786674651595357
Bi 11.014267579207452 18.17217172351138 19.009999175602267
Bi 15.296366426963788 9.428480160369457 17.23591486011816
Bi 14.275991276775612 10.240952954779967 8.147308354834623
Bi 14.638858155539946 13.991739274134732 11.350182195961573
Bi 14.022766775867954 10.933884815855205 13.075542680901863
Bi 14.295888250391693 7.91629450939537 13.749190743154154
Bi 15.07520999415157 7.509425452191092 10.796073891489064
Bi 11.383614226288458 14.357091712878438 16.816145188471307
Bi 12.255450640294589 10.3350678410134 17.84089229764466
Bi 12.578794973657953 10.973100985613783 5.578341110097316
Bi 9.247320288159719 16.554797345168936 17.048111249770287
Bi 10.462374056168251 12.819607946783275 13.799820136796775
Bi 11.185168634774659 9.67108199394461 15.08804882876412
Bi 11.401393581271375 15.78481392432068 13.014958136616944
Bi 11.92782996547065 13.930873958631723 5.575680015273572
Bi 12.08486276124542 11.70706784657292 9.882765512126925
Bi 10.318141103803024 14.367351059567 9.95014768040436
Bi 10.94509288934925 9.340756292612529 11.586965776649597
Bi 12.455925901589861 7.990478079617087 9.20879673255068
Bi 7.994412210864579 13.081248175337 15.692350464673689
Bi 9.345886103401671 12.667289025196816 18.411148728073904
Bi 8.254617176231715 12.781110061852718 11.556406378482205
Bi 8.614668633679456 10.263952173435642 16.656593704685296
Bi 10.133276341620117 10.7661471768222 7.714102817974121
Bi 9.295735141328997 13.658943397416461 7.1664072564873535
Bi 8.307776091667806 10.040510436809573 10.226082637741673
