41
Energy = -149.1981434 eV
Bi 18.069263863356124 11.150405117222535 15.946064281591335
Bi 14.631902950232805 11.66404244345205 17.74808962384022
Bi 17.231953173480914 14.098700359037982 16.106577375387648
Bi 15.938291199281979 8.922415960505413 15.579206502216302
Bi 15.369826796905974 14.58277352179028 18.49507925517212
Bi 18.160757659479273 12.19306246517875 13.030573499420855
Bi 16.88296983601508 9.853068366321116 11.31869079471296
Bi 17.183964510264655 16.114456870202726 12.72290140630106
Bi 12.057316546667042 10.33809397731747 18.868817418030854
Bi 12.878527057217983 15.419756549752083 17.009094776577648
Bi 13.369918939712997 8.173405417044782 17.174283093042845
Bi 14.552382922899518 10.157859760689961 13.213272208926009
Bi 12.763836372472007 12.730498854367413 15.509798620547404
Bi 13.095710630946533 7.624768196331842 12.360041031462861
Bi 16.901332503926433 12.363504978981476 9.423549308172666
Bi 17.31525060303109 15.354014048562442 9.773602366410008
Bi 10.427964532861946 12.539612733060858 17.498402885224984
Bi 13.133150881423225 17.846309033610186 15.13377864412105
Bi 15.561114974530666 13.709530014569138 13.564782291493627
Bi 14.993334392844833 18.250809041681123 12.713595634487653
Bi 8.269661445000846 11.176462489492758 15.820862724443316
Bi 11.471838336115272 7.271132684264319 14.951529361576029
Bi 9.556702070484489 18.873597250640692 12.693893622873976
Bi 10.3695367329147 9.937123013378988 14.059928846435012
Bi 10.519782183246438 16.48096885438875 14.327779193920204
Bi 11.873507294521298 10.18187644704593 10.933289512580423
Bi 12.949646551829607 16.644809371325888 11.189038037477443
Bi 14.327038145829457 15.834368998470708 8.59097179955593
Bi 11.076232891921387 14.0595591355225 12.50548487674063
Bi 14.222251938013057 9.148953710287545 9.178180546194746
Bi 8.138983833594374 8.45816162351295 12.58840959876153
Bi 8.237414558859411 13.148274549531099 13.484616615852902
Bi 11.428143529498133 19.097333744434618 10.309736373713212
Bi 13.897652458479683 13.09669042546596 9.872208941784546
Bi 9.128567068669923 9.324598290554416 9.840179194327982
Bi 14.394916976418981 11.485445691990364 7.255821317552933
Bi 8.734929822492841 17.737232277559315 10.029853343025575
Bi 7.216238377185009 11.110259637117235 11.421404527219222
Bi 11.469402652791926 12.12303333150281 7.965334026054574
Bi 9.300720986744919 14.745657491859314 10.06788326462103
Bi 11.191847820295783 15.07253592773116 7.7003695560646115
