40
Energy = -143.86306658 eV
Bi 8.434331461213565 15.53999917549196 16.0205810621039
Bi 15.725815035425164 13.786709427899147 18.2351389488039
Bi 13.329735087648025 15.299646069197882 17.128938219660867
Bi 5.682805725641822 14.536125594574099 15.114226512518607
Bi 10.529652644508177 12.810003896579307 17.476724234881765
Bi 15.15129309733909 17.463460211259154 15.874504695547108
Bi 7.0540300082269765 16.799109828088287 13.625140560409614
Bi 13.338621451454186 11.767857607300801 17.029017179616368
Bi 11.235662450244364 16.3112406520459 11.727010173189967
Bi 13.086226755646647 15.132559712055851 13.947052372440245
Bi 14.02075590050366 18.807863252055753 13.384675410658392
Bi 16.869280219847017 10.578773529803799 16.102673590448575
Bi 18.320568332756448 14.827464269632529 16.811458213776366
Bi 10.09668336215644 13.65436290747254 14.265535199821299
Bi 11.068675801331606 9.851314787318907 17.710994606370377
Bi 16.06647978461676 13.355891740038114 14.994071052912478
Bi 18.047176371082966 17.19622605560071 14.674858061784963
Bi 5.913138540585859 13.055119082228016 12.389489674363267
Bi 8.4436859431348 11.096500948190151 14.992499575182968
Bi 12.855762277191682 10.877986171624974 13.845930456325895
Bi 19.055912909044192 12.876951202751632 14.339842718665912
Bi 19.97953379331113 15.404907579016237 12.892354213039772
Bi 16.724469777294004 18.868157257405052 11.994010936513972
Bi 16.433116423866558 15.760553493994815 12.214085505043997
Bi 14.669146463755137 8.730128243997518 15.103499121765147
Bi 8.401645733468538 14.711968598480258 11.722674609861494
Bi 10.571049962200176 8.966452742581694 14.691731488130422
Bi 7.575495675798635 10.581025374193011 12.239536205326432
Bi 14.206217273982796 17.205433369133917 10.729789086931333
Bi 10.052285422135913 11.644175534227452 10.337100172727382
Bi 12.499545230662855 13.622529034273185 11.03978740533939
Bi 15.637041807317093 11.49415047548505 12.000406226306964
Bi 17.12639913718589 9.198306980762423 13.353945861708011
Bi 18.606441883179773 15.115202397876038 10.188887834892906
Bi 18.33051961074065 12.146989704626975 10.699995914884674
Bi 11.616053546607466 9.330205930006018 11.483385304000997
Bi 14.133340426838364 13.659258218308837 8.25835719683887
Bi 14.676009175371862 9.57555729839052 9.761214682040185
Bi 12.506034148983828 11.088204651768162 8.228154928357457
Bi 16.447565847771685 11.678971861421665 8.278841841448722
