40
Energy = -145.69567193 eV
Bi 8.19666838699516 10.180689126697663 15.473723498239531
Bi 11.409393206331838 13.241504157089556 17.88690921945241
Bi 11.871254809765514 8.701142565568246 16.98336666964874
Bi 9.164952166817017 8.606455737094075 13.006258772729865
Bi 9.180583495339171 15.267571962161671 16.455922074788496
Bi 14.451640821102473 12.22977172370599 18.041266710964464
Bi 12.723297935689176 7.426239696084048 14.346532701790894
Bi 12.078697350004537 7.773367325767792 10.083832666986252
Bi 7.029319129611144 12.038229937611854 13.34530712081239
Bi 11.025152940254468 11.27538602381065 15.575690539622842
Bi 7.486727151682388 9.476734082261967 10.546377574473857
Bi 13.042423570096682 14.875413004161048 15.851372034643095
Bi 14.77500652208045 8.84333939485441 16.084932779465177
Bi 7.585219263366566 15.011783680541106 13.92826460285543
Bi 15.242444866035912 15.161793946839746 18.01886297565052
Bi 17.70142781039994 11.672986120412878 15.872341760541433
Bi 17.98797478402415 14.542792152320468 16.874496239638095
Bi 11.939433036708389 9.71010545906172 12.451574172893224
Bi 14.765735682365122 11.736277868803844 15.038670961058934
Bi 13.556889322120263 10.041239793039384 8.580085464365633
Bi 9.71684625666681 13.236721484928264 12.588381567124642
Bi 15.64680662577307 10.23361278480529 10.716524278995347
Bi 11.062887758659757 17.186725899370803 15.224149523333391
Bi 6.8620226564982305 12.145079872626223 9.121131988061725
Bi 9.903457121959022 9.4386111875443 8.713141836786267
Bi 18.91789530993165 12.654517295652985 13.214650707980995
Bi 8.285246823289684 14.607107776079022 10.237980129760075
Bi 11.98253817691166 15.90330571255945 12.498022864473082
Bi 15.49065659720675 15.850210784782133 13.344470070101297
Bi 17.241605306552056 11.371618866062029 8.393799445079432
Bi 16.235084747610237 13.155330593869673 11.78354977251968
Bi 13.045172704442546 18.439922376031873 11.172048561247557
Bi 18.50771503616549 15.560313938319757 14.016898111658826
Bi 9.352234458742469 13.225425125462724 7.718280964502924
Bi 11.3894424032727 16.522830976579048 9.504738420445584
Bi 15.69479068906666 13.785564403077135 7.329535938002601
Bi 11.311401443620781 11.969579635593602 9.717123869929912
Bi 17.868675310817007 14.230742450853882 9.360443782165454
Bi 15.690303471046304 16.95601779797826 10.537254410439921
Bi 13.871492922963021 14.597011787156644 9.712912431975852
