40
Energy = -145.41660681 eV
Bi 19.203451845591857 10.364673995134186 11.7156126383479
Bi 17.838407510524775 10.713017367968359 15.377042812867312
Bi 16.598336538855538 10.273261813224835 18.21285337198843
Bi 16.906859525992473 8.364917585890463 11.955196611859268
Bi 17.62167668709315 12.883545442448225 12.42813455466413
Bi 18.370125897695747 10.780666841681823 8.797211829300569
Bi 15.309296623029505 9.81762345872315 14.17181850907927
Bi 16.58537953472177 13.508487737845469 16.083571865630763
Bi 13.731794486368054 11.39643980044663 18.172653383810278
Bi 16.06227511509656 13.09203350189739 19.13085217718917
Bi 14.828524467295683 11.962180513793172 11.60586298954114
Bi 12.556754576227823 8.900080506563825 11.731079516870755
Bi 15.54686410273998 9.79694384769729 9.602176777003939
Bi 10.709982320133028 12.946029937702823 19.513407166866553
Bi 16.29668910468388 16.41698642916618 14.88253691062817
Bi 18.22303496109806 13.754218008204031 9.483204871675248
Bi 13.635302459275739 12.886948598281226 15.466240310383315
Bi 11.252360767435153 10.43865183790969 14.01440497171684
Bi 13.785210294511206 15.842267654046108 16.597050334934153
Bi 9.810086171723647 12.697842252657967 16.561493243836335
Bi 7.891836632611531 13.699192725295818 18.694558409031913
Bi 15.274190761137813 13.71001565995805 8.92651114209469
Bi 11.048508012260923 13.105142630300024 12.252047598462285
Bi 14.262399991976476 15.35558143792141 12.830827418425867
Bi 16.32323616635795 19.173189029343284 11.787657376923667
Bi 11.013670489835608 9.877284520988082 9.298757489782684
Bi 7.435204745573647 12.789250271532179 13.635242779943177
Bi 10.407824818680313 7.146727034660496 10.4271941578524
Bi 8.317730624090954 9.857332922676806 13.549063059315413
Bi 16.270015882880266 20.086685615478697 14.667117769791036
Bi 12.273267209948877 17.13243504182307 14.246857123971377
Bi 10.235710535970696 15.414068386067557 17.84154057330696
Bi 14.372420354305671 16.427917607667894 9.949325971667419
Bi 9.721057581401384 15.383609719111895 13.87089220557139
Bi 16.172090077998092 22.126187300699762 12.4191616738427
Bi 8.374632819580064 13.061207128507247 10.788996130346538
Bi 11.885922562066243 14.715574707018888 9.611046688501753
Bi 9.395490397805721 16.007275709504086 10.842038027375496
Bi 8.286880993378341 9.323143854681152 10.552158978899932
Bi 13.80053084301932 20.28738304355774 12.971023694002705
