41
Energy = -149.14027055 eV
Bi 9.939951023045396 10.875340239516223 17.918654396654702
Bi 7.896408987347626 8.613702414187028 14.531687749396974
Bi 12.630854063717862 12.022880979742206 18.788109657577834
Bi 10.717310925823249 9.50570328605367 15.246731481055129
Bi 13.93420907994304 9.903931720686701 17.024163945872044
Bi 6.790460374851525 11.611312742644033 15.01413121751031
Bi 11.880224328110831 7.101778564706352 12.801721764619494
Bi 16.841562665117337 10.480831110954403 17.56300489380556
Bi 13.57588933835063 13.569754166413766 16.325250096749787
Bi 6.184804409093108 13.831092950246017 12.912880228749612
Bi 9.328624308486194 8.486133348117008 11.864115055070986
Bi 8.695323013594377 13.354029690200967 16.700134062671705
Bi 9.4322091577932 11.53596784061023 13.235206071999142
Bi 14.884702600272487 8.299584787242063 13.549185777581322
Bi 16.32807350021038 13.636141288060351 17.565465348841936
Bi 13.895579411027505 11.156674327239834 14.037373462094752
Bi 17.549417928823566 8.485227818061993 15.284834554882202
Bi 12.876669776049257 8.199867380631606 10.207137971937373
Bi 12.014958031662719 11.058585808036131 10.768112584871531
Bi 8.090742426817247 15.976634454000305 13.894725684476125
Bi 7.893388126992606 13.221386927910345 10.410872488182793
Bi 10.564803334829394 14.25037768816485 14.444030922897172
Bi 16.875352832185364 12.111714647908451 14.337531718932892
Bi 11.758266143851106 11.44595139694465 7.713669025222408
Bi 18.32856663511019 9.941340300663262 12.791767795604276
Bi 15.959941173784387 9.187706854817723 10.768681118318787
Bi 13.865851319351222 14.961317568979107 12.823608275305022
Bi 8.188290950005637 16.249023008604798 10.809717243028961
Bi 14.148824150757038 16.518984846195124 15.496775350555865
Bi 17.115665653197084 15.875863840991977 15.573567465177488
Bi 14.989077369622716 12.122974578027994 10.688249155205334
Bi 10.218860425951652 14.067134925022161 7.796267888672417
Bi 10.650980737336008 14.518783603749844 10.784546833102201
Bi 16.920957924304496 14.701357976567344 12.69744360173812
Bi 12.16229755495581 18.18319782200999 9.184026216362943
Bi 14.740853543229857 12.014882429788756 7.613760920745146
Bi 14.303477574152875 17.51594964495841 11.230138098148807
Bi 12.242343472229532 16.249635419012947 6.859884821900698
Bi 16.306427639376167 16.624653173073042 9.156815924189917
Bi 14.991602665505871 15.00068884261935 6.945455500114716
Bi 14.66313979815068 18.633610254603997 7.511474058568859
