44
Energy = -176.97684872 eV
Bi 17.857229184361383 12.57016679660152 12.300037445994473
Bi 14.611824710410163 11.944482788501551 9.305301470549654
Bi 15.310024841659985 15.448162001849285 10.756364688908711
Bi 15.34485298018001 12.250362798162511 11.719283806360474
Bi 17.64668856645965 15.332555892516433 12.112518267265168
Bi 14.132523369575033 9.812241972986953 11.331595954583442
Bi 15.861747198291061 17.175644180319395 12.865583845096253
Bi 17.667869301304638 11.79672886916284 14.828206230602035
Bi 12.224597640466188 13.061350424771648 7.564319990749305
Bi 15.693338995533397 10.403821473188296 13.663608566455073
Bi 15.113780954888945 18.07347296578817 10.51250223140867
Bi 12.403336510621182 10.826401485383006 12.896480443658962
Bi 12.574686556450782 10.602908446810684 8.476722299556586
Bi 14.04558493854902 14.372218257111395 12.808436529516003
Bi 13.498016108781625 16.900588925306874 8.649775159814386
Bi 17.080219500140856 14.207298652329182 14.336914082256015
Bi 14.98331067578357 12.670306192513177 14.658150442492337
Bi 13.808798141873032 16.421775127148756 14.349704385993448
Bi 12.164150514695871 8.048576968310412 12.929258480081966
Bi 12.692499297004387 8.300484301435667 9.655658072874601
Bi 14.441094181096835 14.365235453437938 8.37271426140946
Bi 11.481805408995383 7.742980627684621 15.498393824829254
Bi 13.400747495287309 16.11960063050142 16.90355552521348
Bi 10.086585945899143 14.135146356411056 8.488806180270629
Bi 10.035927147694046 9.575655017789169 9.489930809192721
Bi 13.767352636062533 13.641311156498093 16.616583782528714
Bi 11.63532645339209 17.437805412018147 13.418698422926626
Bi 10.140644479372169 9.9162577637128 12.134470412943351
Bi 10.493636253186269 7.444494345725532 10.98558627905467
Bi 12.128119910814375 10.313288065864924 15.376183219904094
Bi 12.825636133206217 17.188871703718853 11.207638258080541
Bi 9.405804947424658 7.717882290408942 13.726485454431005
Bi 9.586484212753108 13.142482690808185 17.338620713861474
Bi 11.316341352372424 14.709874252354902 16.136582646186064
Bi 11.947601343153789 12.071288477977516 17.231763456955463
Bi 10.842334507386116 12.099725686526877 9.821263565365847
Bi 12.106727687964417 14.945248176568123 9.854379789210208
Bi 10.784928919628827 15.056053848346172 13.688740880016327
Bi 9.528533280512061 9.422304052645725 15.899155602202228
Bi 8.052084548605809 10.062949352798398 13.691444536905351
Bi 7.874361336432224 11.359849098618115 16.318626558959796
Bi 9.376109413817497 13.258237047452882 12.711324456709644
Bi 11.916244988827657 13.197564307059078 11.898446221478858
Bi 10.027035757944052 11.959981325345947 14.889812440708079
