46
Energy = -167.51648903 eV
Bi 17.492990566865167 8.78763272861481 17.367195701633687
Bi 14.759430719056844 8.0361157403801 18.51406148046827
Bi 17.281308756155905 7.655233907221095 14.557738190135844
Bi 18.48104472504224 9.86879402839981 12.941109955076756
Bi 15.391114048740489 12.924763364480164 18.465939586140827
Bi 12.927296407629331 10.020845228473778 17.114173670420346
Bi 19.05151122952933 11.699051596914057 15.268051599788238
Bi 13.935713315284607 10.598889460310021 19.946672753504103
Bi 16.126474336200875 11.187648246864068 16.052144737021706
Bi 14.243514757456959 7.76851146933158 13.277960461866718
Bi 15.361912005150538 10.372210167684898 12.08655461504609
Bi 16.915794170227464 14.211568302544709 11.733645222559476
Bi 17.251089801142612 12.152863519182445 9.488314814872805
Bi 16.368558911798843 15.044692594473934 15.341528545721184
Bi 10.510344726268718 8.355230724096058 16.087907168269638
Bi 11.924237735281693 8.341002710854204 11.135244594890459
Bi 12.934479755370964 13.6271403071545 16.718372644428154
Bi 13.427101152859406 10.465059702560293 9.61624231224882
Bi 8.488856079123526 10.49225355762576 16.726977949692227
Bi 14.943762993228994 13.840544940341877 8.398705603798364
Bi 12.08189532009557 9.8657085560565 13.826557128642145
Bi 19.03805799006916 14.474954903614659 13.940378228354232
Bi 13.194704883132687 16.70534478839901 16.53100511640082
Bi 14.343146554864026 13.071468191473468 13.908411523775985
Bi 9.345760727884679 12.336228721410295 14.35483399737138
Bi 6.470507613640469 10.04119277998353 14.436935133481379
Bi 17.407275297055257 17.698650851435776 14.04708938332263
Bi 13.453341084959717 14.786379492824548 10.974856483335431
Bi 10.216562597621783 16.88162447593762 15.759428863488726
Bi 11.171694715451604 14.976707932412772 13.58624445087741
Bi 11.464557155161819 12.403452177449857 11.025115269893105
Bi 8.785180574523888 10.032579570880358 12.355924543877586
Bi 6.435466389261325 13.046436958387714 13.604175362962039
Bi 17.167866687631363 18.0189151501197 11.03257577143784
Bi 17.66018950033898 15.108556704318303 8.809582543246666
Bi 13.709510112654016 17.420340515329144 13.508585503436501
Bi 8.63167972774783 15.535299720286966 11.91198843443053
Bi 6.995097917926714 11.995119589861362 10.759907709556419
Bi 15.206656858260995 19.838522271135172 14.841447034942895
Bi 9.177477800980418 13.808980337528094 9.49907101008737
Bi 17.11849627432866 20.789469603029485 12.512943685880192
Bi 12.167652362761272 17.06209714763653 9.330348946532283
Bi 11.08510829264379 19.010846068143206 13.705186266484564
Bi 14.439141401628925 18.973454346812574 10.004010407972615
Bi 9.903427719042332 18.179282936305604 11.007857387896564
Bi 14.09902513962071 21.016159609830556 12.252005322230813
