45
Energy = -163.44117288 eV
Bi 17.353187074204282 10.751663972516749 12.633730153911136
Bi 15.945119379730313 13.110879695319197 15.009009228533346
Bi 17.588660302397827 15.601690016454821 14.353104536031244
Bi 17.024338544851133 8.367726862972052 14.606885763514827
Bi 17.237465814225672 10.670489966378645 16.57466424289736
Bi 17.03365373354346 15.720636912818103 11.386110661915383
Bi 17.12074178205204 9.665077726298748 9.717283243706856
Bi 16.7606815487923 12.419536833817528 8.498602071239956
Bi 15.156944818012754 13.349275475280084 10.953727230664123
Bi 16.1706561205465 13.751316662697315 17.959010907256765
Bi 12.38174774044409 11.828857264452354 15.934473817714151
Bi 13.342177405343126 14.136914630161563 7.699862644306938
Bi 14.665134219399157 8.298366662984886 10.953296254426817
Bi 14.800498504625631 16.485806549077395 17.9562636221517
Bi 15.039453197008534 17.127827306088484 14.963312174711426
Bi 14.796126127359543 11.99016776243398 6.201304206977514
Bi 12.83421853147794 9.621412144387989 6.76777656317373
Bi 14.28821193198999 10.631187224287956 12.872440236912801
Bi 12.893680316951636 15.12921976418549 13.882755753137934
Bi 13.997565998992354 16.194016560160875 11.086969953454851
Bi 14.023057449583384 8.620865702750594 15.261949185164294
Bi 14.550625475384074 11.10233638865083 18.045718091895086
Bi 11.951653556293971 15.982620571448654 17.055972062181997
Bi 11.576455635374234 11.46112147541107 8.90388161143782
Bi 10.811328345387032 9.580141529459816 12.50068852523664
Bi 11.377624247550655 13.377714880467396 18.388769134254147
Bi 10.875981721338686 17.449563258386284 13.725315345003096
Bi 11.848957055994566 8.371894515074072 9.74848746906579
Bi 10.358997328823792 9.78334957849583 16.95696567612062
Bi 12.288357676287003 6.9249943453625065 13.34754397636159
Bi 9.753140853963547 7.740693976078258 14.850555972789008
Bi 11.066243412644505 17.341961691276357 8.95136829311457
Bi 10.29140051289989 11.149079872056902 6.089607848895451
Bi 10.592446618817025 14.589190191127502 10.151514264155974
Bi 11.111226669555505 14.136243364394112 5.674669586657588
Bi 9.768948507103243 12.963526674433886 13.204190521794157
Bi 8.495295376375953 16.407505441001952 15.431737956031814
Bi 8.03699242845649 8.874427874033593 11.468530365589716
Bi 8.578827559753195 13.939045087181503 17.283668633833468
Bi 9.082476847050176 16.955606763373 11.291884196574072
Bi 8.53240662187569 10.302829499605997 8.754097805325856
Bi 9.095310621458438 15.397459084014827 7.635685019649832
Bi 8.1563576547468 11.593615990523489 15.377575855140973
Bi 7.613990436890883 11.891908243455287 11.188057911716381
Bi 7.112681740057723 14.362580332433009 13.658348048720631
