44
Energy = -160.58981014 eV
Bi 10.577112332169168 11.349443768385978 6.983002856214579
Bi 7.50380077439953 7.242582863928498 10.686255361153265
Bi 9.598361408083433 7.957873434677523 8.633040385187591
Bi 13.377462832501427 13.490918536490604 8.136965862885468
Bi 7.52639752097662 10.917208817128866 6.554008759759757
Bi 9.93228108077932 14.302649907052853 7.355259661335219
Bi 14.626929019946694 16.14480108945709 8.521157840696034
Bi 6.9326324581569665 13.651540982009074 7.780314162506365
Bi 15.569175404762715 11.941929905481485 9.694266348182701
Bi 10.034207159167247 10.661505400702922 9.968284918796646
Bi 12.975752922640767 8.883539627441394 10.754474799374748
Bi 14.155075966669264 17.81336888374048 12.232248960027354
Bi 11.954776290192385 17.164601978632927 10.205408148005942
Bi 8.543994046975591 8.70907951978917 13.182698991415622
Bi 16.763366665876017 14.739252040042889 10.251561671920419
Bi 10.240331268181954 5.890625758592216 10.797021310849686
Bi 8.043641654488606 15.557540042082884 10.621785101993975
Bi 13.673826776457615 11.606957861432088 12.062355464297655
Bi 7.003220879108832 11.176221158511291 9.531070186629629
Bi 15.053897770690778 15.002143673026726 12.738837627551728
Bi 18.19725631309872 11.285094515406033 12.242566390031614
Bi 10.976644743472539 14.255183549968244 10.249172927278595
Bi 19.696640265710776 14.010059323013643 12.446081395283429
Bi 16.50627224485612 12.305478179752798 14.587933837925787
Bi 11.403558898133452 7.7023773195057945 13.02226479854839
Bi 20.782033940274747 11.61143388420328 13.867778257146053
Bi 16.682246215544147 16.473405107597397 14.889185317961646
Bi 9.273712289644111 18.034513196704847 11.671159790919084
Bi 15.313388747574646 9.108610521727593 12.790729668923248
Bi 10.487616474977182 13.79219714705971 13.825647008218652
Bi 13.946364126493735 17.840171648946964 15.317164918075886
Bi 8.170330251822122 11.709675099246908 13.708036703226584
Bi 8.305064611088733 15.912103724059465 13.631922823114168
Bi 12.37056336734091 11.120152869266615 15.43905264925315
Bi 19.123861572706712 13.656157443161023 15.436024515591345
Bi 15.754590662237254 14.985448049691197 17.47990725915467
Bi 14.030430809841334 8.55393569642223 15.555691631171156
Bi 13.188749432887754 14.889481098405179 15.934407442355411
Bi 16.612105720219084 9.957040930665045 16.503614870781405
Bi 9.441298532347401 10.562902684407282 16.26411182311198
Bi 9.214399825600115 13.614951504536034 16.656750716085465
Bi 11.570744820489383 14.409661388871326 18.446751738161826
Bi 15.757514179009329 12.053218863966197 18.5488267483015
Bi 12.744297113160563 11.588890395564556 18.43112774134984
