46
Energy = -168.17980962 eV
Bi 15.136971463800913 18.089225127034677 14.947785898410329
Bi 14.411897731584933 16.327963412140118 17.357345630289807
Bi 11.131151368766986 20.552857497395213 14.266388836194398
Bi 17.017543727113605 15.847292990787325 15.821261032423598
Bi 11.212172612917364 18.375383324664078 16.382246689239157
Bi 12.659631123434052 19.276072786393648 11.943933424558486
Bi 18.665476654752933 14.377455238034756 12.546384241184304
Bi 15.553328797324395 17.366716121592482 10.710410428057083
Bi 8.6026435235559 19.032599374828887 14.977039766791767
Bi 13.55248942869493 16.523642932016703 12.881039763019455
Bi 10.878933358896246 14.249610581295924 18.310223945622827
Bi 12.898325376411762 14.056205195571275 15.986236580656115
Bi 14.886615548224674 12.700842959695446 17.891658637925463
Bi 10.092475978347105 16.469261489507986 14.293322026348992
Bi 10.887194041522058 18.069825234517864 9.806978269540277
Bi 8.535370869585188 15.455395120182576 16.709615441893195
Bi 16.040685628137858 13.671747080284446 13.914432989115927
Bi 17.368665164499514 14.92354631767255 9.788439685488532
Bi 13.509194351067489 17.52419053129599 8.395857804804239
Bi 19.213293977514184 11.63836673655952 11.280803281815514
Bi 17.40728244084479 11.828981270997382 15.890226728133475
Bi 16.278441506730147 12.021182911367514 10.394394191777815
Bi 14.36891788580344 14.482516475979024 8.661749908449238
Bi 18.814547481158385 9.924347039120068 13.769471635311678
Bi 13.666904156706599 9.964236397254139 18.37265091289398
Bi 14.119863664205814 8.16846350335707 9.742709586665326
Bi 12.669522402520428 13.317368938025371 10.945508308615734
Bi 7.685849434737917 12.711451176615455 15.6122381865737
Bi 14.118712957938172 10.074265386470014 12.245062896811575
Bi 15.671897477705219 11.716148504818376 7.411016859665651
Bi 10.361080502139156 15.025061581800708 9.879028449754937
Bi 16.682532471041462 8.244408413741843 12.477978539671428
Bi 8.139372331659283 13.383902235693737 11.29748535161674
Bi 9.967425050581518 12.495969901492188 13.602534026826781
Bi 15.028768228451359 9.705948862566238 15.639253753086958
Bi 11.577795586764239 10.644405172783765 16.27838864424749
Bi 8.855909483834333 11.290173316477729 9.21605867202339
Bi 9.27599197230515 11.644314424056542 18.018867066622537
Bi 11.669047984884465 12.364620934613288 8.19452574007031
Bi 15.619347959127454 6.840551870910695 14.979535649444223
Bi 11.494872987246746 6.841097432898933 10.511986739851173
Bi 10.792620524870427 9.75020055400642 11.043624833918967
Bi 12.85429074649267 7.443876119209228 13.352757361464686
Bi 13.309637278852893 9.87692119779012 7.3717884648811305
Bi 8.798539925895163 9.66689175330692 13.352761113350894
Bi 10.49764629897098 7.991149048430822 15.27976953747858
