47
Energy = -171.72082572 eV
Bi 17.635668412511972 10.27209364406123 11.23642481831497
Bi 12.810866408713046 8.019565415070717 16.182640288570557
Bi 13.906047412297339 6.750595905813104 13.644760774046267
Bi 16.5150681527224 9.961490252985397 16.29541413322523
Bi 19.505083560114123 12.556033928479575 10.204004785852792
Bi 16.626495233536893 9.999676067124401 8.331522934946415
Bi 18.32203310239656 11.616811766298273 14.492303140432778
Bi 6.886229168515918 6.928277128739631 13.827339083725551
Bi 13.820430252692676 10.758440033986517 15.12795598825254
Bi 17.410119006687538 12.756448349965916 17.156253386704936
Bi 7.706992036726363 8.02990069717092 16.516070115320193
Bi 10.9130633506762 7.3152732823600495 13.915592026956096
Bi 16.075664020376323 12.57706962724305 12.57076660549691
Bi 14.21679083165947 9.527780596520415 12.276909846606882
Bi 13.651908367060239 10.522388635989769 8.840805075050888
Bi 15.135812915491606 14.207258318193023 15.752362597391933
Bi 5.073661975826991 8.884975969950593 15.303018370738076
Bi 17.628378405842273 12.877614521620533 7.796838571226084
Bi 18.265456203234514 14.702384917281277 12.058903274519034
Bi 13.179705794341045 11.426996739602476 5.9464526563013695
Bi 6.816688942792488 9.214561244686175 11.79088350796911
Bi 16.8853806211824 16.636346447865932 15.154556383262538
Bi 12.096956479893377 13.180673874268487 17.56738402588134
Bi 15.011493272011885 16.64842832984182 17.606103940681376
Bi 14.379981199295983 14.210272257766038 6.393980876213499
Bi 9.081496455069301 12.479917411946792 17.768610154534496
Bi 9.41775177515399 9.533492249942432 10.180769341971365
Bi 17.39399143479814 16.26457021648916 9.61956417435927
Bi 11.466240379032934 14.878918711010837 15.045563037386568
Bi 14.999949372491123 13.356027641984138 9.300970214500097
Bi 14.766874132786088 18.070112660768487 13.526253403960167
Bi 9.183961777206427 10.482711140947437 15.40412451311291
Bi 6.63038048285453 11.335568203922774 13.96242493509521
Bi 11.36495409341254 13.804730114821234 6.468605753859557
Bi 11.36368276879961 13.751700085250278 9.516337216126601
Bi 11.144110908112792 10.100099479409195 12.602546808270708
Bi 13.466847177347873 15.60030420126401 12.245431968171099
Bi 10.88064752159154 15.921534811426943 18.331945451125854
Bi 16.127829528888675 18.753181699230698 10.848051587773474
Bi 14.300690506907921 16.687070360148475 9.472217109064333
Bi 9.366090829275127 13.25986633748767 13.046387587484942
Bi 8.668098997485101 12.494253444796877 10.176061404873995
Bi 8.650705670001836 15.11813140216536 16.3049131998435
Bi 9.856880349062898 16.407147427707923 9.569390757386552
Bi 11.175886936810508 17.610075989696316 12.049393727725585
Bi 12.453302653282227 17.641693811633612 16.30609569323194
Bi 8.521096531636736 16.100698165542017 12.304486002792869
