45
Energy = -164.185828 eV
Bi 15.531239756947944 14.571978352008049 7.473896747040729
Bi 16.97502871732649 17.210508389383993 7.847702689164465
Bi 14.661786345465202 19.207088053334875 7.708364427210894
Bi 16.742225979836952 10.81015554175895 9.052830625771094
Bi 17.82866636174549 13.682416654820312 9.32099794030329
Bi 11.086418614316617 14.197629117520481 7.783406063045995
Bi 10.838515172700696 11.197364510891953 8.336911466712113
Bi 13.607607970205565 8.466731412092768 9.930836512369046
Bi 18.071721494739094 9.164836242385801 11.258106929759663
Bi 8.116874381842473 11.76736074905622 9.710563448678322
Bi 18.021039970338656 11.919024656942428 12.73112737745878
Bi 13.388116515923132 14.918517751660763 9.642655578055395
Bi 16.955229374778234 17.59419459347469 10.864027295375301
Bi 14.37875244153335 19.272637319197877 10.79452043257327
Bi 12.409074522158337 17.759377512877737 9.079864264657758
Bi 14.071781477463277 11.460056204941331 10.445385789506524
Bi 8.74726421937175 14.790970251056516 9.696474501360028
Bi 16.27326472000479 14.69485928512366 11.761125535049569
Bi 10.677006745681588 8.302651480995218 10.873252021766866
Bi 10.575665115063835 11.312954732938202 11.409009404815267
Bi 15.49714405691961 7.753349453517352 12.255145231748227
Bi 15.095174506011903 10.654182286137624 13.244433322991672
Bi 18.446781937251547 15.465672207472792 13.849289080499341
Bi 7.216790543599705 11.640365838510377 13.206143567953141
Bi 9.852838862976782 15.711871259496824 12.398869545478554
Bi 13.623279407506201 16.93968499389424 13.49466833778418
Bi 18.32385665532866 12.973371820976176 15.614450608105072
Bi 12.36110446387885 14.127571969103432 13.31145242459133
Bi 7.255515468355974 14.626822065593062 13.665415219537094
Bi 13.198313587241572 7.585624317819807 15.007398741055002
Bi 11.057545517211485 6.375748258828753 13.25962317350661
Bi 6.0050618601628845 10.463050172140312 15.69650497782522
Bi 15.932373730434675 16.316858470937355 15.425805933590265
Bi 12.170434158662172 10.434770120556577 14.569580846766609
Bi 15.227831188568633 13.380140279020846 15.592395974439473
Bi 9.857117210042288 12.925061648281364 16.28328658596525
Bi 7.73444237232226 15.043433841887573 16.645215625236567
Bi 11.895379314511562 15.869797054267691 15.841711628412678
Bi 8.673356018566897 9.23264290628807 14.511001163791851
Bi 7.27448627057032 12.264494973207253 17.821075885463728
Bi 10.56837053715504 6.538876707124651 16.29121971552676
Bi 13.81626565231459 14.703585709578416 17.96852247976154
Bi 9.569808059328643 9.253537266348715 17.40841944313809
Bi 12.46187746200707 10.257431770552275 17.61552450968065
Bi 11.497033348118169 12.87841517120115 18.836552779277362
