48
Energy = -175.09016735 eV
Bi 15.262048861632033 12.062113708096525 6.667723047716423
Bi 12.08981145540786 15.387224252218207 5.916605657837863
Bi 14.138411552398805 10.47081321598646 9.128781786256072
Bi 15.02958637936656 15.111508531226434 6.702571018433887
Bi 17.070097610179523 10.29462415549499 10.142143169253977
Bi 12.22216913991328 9.231277129492183 11.980592522176895
Bi 10.338359122122208 15.206540744483014 8.392953372882419
Bi 17.70599677877279 12.735240827918314 8.346764616592761
Bi 15.546998101907137 14.51529808434922 9.65626018385105
Bi 13.690713822122921 17.967971313419252 8.912706186396315
Bi 11.143448134821694 17.954399328624675 7.189184251461572
Bi 12.063347103245288 9.951534287051166 15.113103498779338
Bi 14.987442402330865 7.9415237056998 12.272237795371428
Bi 18.44993372192286 10.626858413674153 14.60300953999888
Bi 10.222951766104657 12.029598905222164 10.68270555511443
Bi 10.416891116068786 8.081279271686169 16.888661978805164
Bi 17.298906831563475 17.064523022225654 9.784385037123018
Bi 15.508860264682417 10.313950750526873 14.108443343638303
Bi 13.181664261277223 12.116915421743359 11.516211558399943
Bi 12.299461618674798 15.780047115667491 10.642759860313683
Bi 11.438466080814608 14.348232905502593 14.031411433406856
Bi 17.169328205562024 12.332434327161598 12.396231287378352
Bi 9.137586165717366 14.623370703901962 12.001863210048157
Bi 13.616504981694783 7.292136035691735 14.992960664503068
Bi 10.452810204495865 12.699713028924853 17.153204788263256
Bi 12.880232686258937 7.248842351226848 18.752737935934018
Bi 15.779982773043109 15.700831855159084 13.15357027020283
Bi 12.90102695934592 10.258003924041462 18.55875023395453
Bi 18.646480702119568 16.454204904582273 12.468329046869165
Bi 15.568979172087307 7.5502792156086125 17.361233876661327
Bi 10.424282000659785 18.22431704031589 11.318282819128452
Bi 17.353760857291707 12.445990136729982 16.84190702782955
Bi 9.415248198498077 15.65196797392472 15.893100411952881
Bi 9.412179567694016 12.071353427120778 13.66231630320926
Bi 13.047116965034201 17.933059680630752 13.46405312292357
Bi 9.866912404289161 10.291665023667804 18.98604862122164
Bi 16.51161486612639 18.582966978021215 12.322945181232036
Bi 12.913388489983369 19.955236356151225 11.148197556710189
Bi 14.372170125322974 13.088738814047524 16.306351465506992
Bi 16.865032496600108 10.045111596472584 18.694674782483542
Bi 15.713556028306412 15.844802459296398 16.255052997674536
Bi 14.866808461107444 11.263847622172205 20.639024179406736
Bi 10.93781657085176 16.816112761389945 18.26249673713924
Bi 12.470911953676957 19.975498795009496 15.599539879533019
Bi 10.01474686133944 18.536980518327116 14.464763999036457
Bi 14.583633373210283 13.99025339395303 19.204418598231683
Bi 11.52550859136571 14.120993738283175 19.60863704662006
Bi 13.640802649707776 17.849130056521695 17.47029782301247
