47
Energy = -170.99701844 eV
Bi 13.616974185854815 16.403467830694762 19.761631190261046
Bi 14.393996737962487 13.498718631145152 19.745964629827405
Bi 11.349975822952807 15.805368181231719 17.682232173837566
Bi 17.905111549517432 18.659241896506057 16.552550543614462
Bi 13.677964974716787 18.110141487349548 15.956528625698406
Bi 11.411292728929599 13.223435132113426 19.39139418353629
Bi 10.743086503293128 19.100645043881457 13.702833669908884
Bi 15.782840252004897 16.610092670124622 17.56266205902456
Bi 10.297131163466002 12.719920001676641 15.374975878279443
Bi 15.924318843767772 19.426527527981793 14.295525040720358
Bi 17.702874740719096 12.875845919224828 17.587094680484384
Bi 19.22931219118717 16.050437859729858 15.636159819274635
Bi 19.03635335825768 17.436153301767845 12.928815145279865
Bi 14.088086916410179 12.065447366535059 16.71038710926758
Bi 16.107675614032527 16.959447082104607 12.51143701617107
Bi 13.090355414408426 19.132529888487422 11.743015485705843
Bi 12.99366299784946 15.225770910776127 15.146992662735352
Bi 11.363938359214629 10.811466503702386 17.471687022938656
Bi 10.363685765535346 16.008555741052508 13.70548232084888
Bi 6.642066443575371 14.1126514932044 13.194356895070118
Bi 16.64106899955233 14.442435948149203 15.139078480904606
Bi 19.206807897571103 11.138322828349693 15.589343315140974
Bi 17.14042253194968 17.574201546868238 9.620423006409204
Bi 10.259360117040869 19.109618868078975 10.694820774149864
Bi 18.20691287853557 12.61979662041446 13.133967895123407
Bi 7.383420846116696 11.734814824497299 14.985392318225706
Bi 13.102887059718674 8.458794363326769 15.058040455198787
Bi 11.776677871336542 16.442070537357417 10.998676667997437
Bi 11.081926336617926 12.741083463007207 11.706697509907967
Bi 19.54372657322985 15.841560275358164 10.332623927982773
Bi 16.988451049982736 14.574687472197748 9.251117631345846
Bi 16.481041023548308 10.054291797696736 13.779519560311382
Bi 13.615828922151136 11.188178775293967 13.72047206908476
Bi 10.231837146462691 10.1045169493675 13.018950312362222
Bi 16.53152934994136 10.08157122624898 16.998165414419706
Bi 8.520574788025023 14.18358118042418 10.828932739710728
Bi 6.257507050231297 12.17702871582165 10.827743617088553
Bi 7.221667967136383 9.871296530081828 12.556675597530322
Bi 14.856824858457015 13.646609643267215 11.326253786335181
Bi 11.999543509042052 6.574299690865851 12.923807790541806
Bi 13.339719103169859 14.027565495469165 8.629538210536921
Bi 15.009386087056269 6.918335849272581 13.161273237564494
Bi 16.121350291430378 11.095007565927157 10.20222356612862
Bi 11.372957367629022 11.71034545915363 8.78050276689557
Bi 11.506668478598684 8.596807539235588 10.597350683240952
Bi 14.502159469725681 8.510949056515306 10.549026887078949
Bi 14.235378642916533 11.202704089291583 7.783996407129379
