47
Energy = -170.4197375 eV
Bi 17.81053143026193 16.787739773885654 13.200480596327393
Bi 14.683228166942932 14.495259219462229 7.900203622577517
Bi 17.504634019284087 15.530544174581815 10.413548251462911
Bi 15.753372734052242 15.802460411854653 16.91471298931909
Bi 11.860604134698859 14.432691976633427 6.706184129450903
Bi 12.67983559375363 13.245322102264616 17.595226794892355
Bi 11.527658721882702 17.772203869852774 15.483788910721401
Bi 10.17943804170674 15.530600864608978 9.115492160713405
Bi 12.70996137110256 10.131656716741313 15.325526425604728
Bi 19.456710310303595 12.820405095819558 14.369783923345173
Bi 13.792263502783713 17.371316236410298 8.330071460274858
Bi 7.1414193960710675 16.13426069883618 11.399069312286334
Bi 14.88063619073742 17.945055786552274 13.484184492418887
Bi 7.561162699544253 15.645944547852347 17.22593639003756
Bi 17.321061465567098 11.046125400599724 13.024710046173777
Bi 18.61480259583368 10.208854886302204 15.680470740201626
Bi 13.35838583482375 8.492953397282438 11.726298152989193
Bi 9.33392091378397 13.879877386897164 15.545183465780228
Bi 9.767807025433761 16.245378615678856 13.146470853908747
Bi 9.600810067141945 9.58390802840856 11.030445570515496
Bi 8.682096271300985 13.068399692717982 18.453316272390527
Bi 15.693709101149649 7.977686215901177 13.68036528001714
Bi 16.861987281175384 7.3339435932435775 9.547139112393367
Bi 11.873604674016454 10.335022256038805 18.239936026768564
Bi 7.5812015733856795 13.820698267377905 9.33604659789407
Bi 7.164051516402797 11.498604663294081 11.274031081937162
Bi 12.584231306401245 17.383887876351658 11.158470990262654
Bi 7.832399655577057 11.533342726169803 14.286697570687968
Bi 16.765844457666585 14.284147303528282 14.461393642344504
Bi 15.535289076098964 13.290824785303132 18.666317649674713
Bi 16.601930823016446 11.477059587793063 8.985891668783907
Bi 13.453544469127863 15.504359643702836 14.805583045451737
Bi 13.558743677282303 7.262541697254326 15.800327293967975
Bi 15.915872127245137 18.103005229654016 10.35745361072283
Bi 15.79970658648711 11.241619629571609 16.397249948750858
Bi 18.542897187940877 9.671735725203975 10.59131654232149
Bi 10.668058734166156 11.269175146446788 13.296194744811162
Bi 10.968808258877806 14.678530427369223 19.64963572413838
Bi 11.759252654570586 11.348288555156385 9.80744669039832
Bi 11.763929735153742 14.357864523074113 11.501869073537433
Bi 15.083939048265847 5.914256194907315 11.579935542375694
Bi 10.073135124914543 17.19232056913209 18.107265882014197
Bi 15.157898427793423 13.567304913440772 10.819975833901136
Bi 14.660426101726506 8.967836404690484 18.148860887580426
Bi 10.035486011377333 12.218016348584829 7.564652940197689
Bi 14.457130042941106 9.288058937585168 8.96749654814643
Bi 9.263814060367064 18.186142096119674 10.774573709666512
