44
Energy = -159.35499174 eV
Bi 14.185121724795566 7.905403469858983 11.700094316316637
Bi 14.726405212384124 8.483675280897284 16.136884675787584
Bi 17.141190512101545 8.25476655473209 10.9178700473459
Bi 17.220745077505647 9.149846328504193 13.81798551083861
Bi 12.137631368597697 8.150198498613227 14.52420148442255
Bi 9.67598794650231 8.3607042638577 9.69909745661848
Bi 16.044675010856565 10.903149493655008 9.929738772403393
Bi 10.344616897263545 8.953232382854527 16.96306084798462
Bi 18.99937335657663 13.075231155734713 13.059955906256787
Bi 15.137552744751396 11.57506788992068 16.107416689926353
Bi 12.57400720430231 9.800379901589931 9.812509079080618
Bi 16.1013036040139 11.826899617321311 13.013400731375803
Bi 8.634088438537882 9.133816478470509 12.450346361799138
Bi 12.967727942039309 10.549938416031527 12.746821956796238
Bi 18.50058413857981 12.68332982988625 9.960373606435104
Bi 18.12296112264839 12.009695567126956 16.031087354615295
Bi 9.397055330911419 10.452781859464483 7.1960534238798575
Bi 11.802254516399726 12.374391804744555 7.377482786963955
Bi 6.684594799244585 9.368184894167886 10.155383123068685
Bi 15.32422296248644 14.296974057363352 7.3371109751238075
Bi 12.902117372399193 9.49809480932578 18.507009816335344
Bi 10.021048032838019 12.66170875194219 9.923330402333452
Bi 10.878966872248487 15.324082648206698 6.974131329339701
Bi 7.262519219362737 12.00117258588221 8.750154775058002
Bi 17.888502878830668 15.914875344692765 13.481681150169313
Bi 13.991121348429816 13.872749619568905 10.033597462060042
Bi 11.663803646824487 11.66811050198579 16.756577891364234
Bi 15.01289459514505 15.09840401671154 14.070966837039519
Bi 9.5994936262521 11.993935217045475 13.075503618770629
Bi 16.779732758439692 15.17936287480806 9.866436542429689
Bi 17.104093908304282 14.94413282427659 16.286820122427596
Bi 13.37708014164516 16.377038648134 8.356831474321917
Bi 6.954596800867422 13.301842332234468 12.197174087776107
Bi 13.42932816772502 14.863033076308989 17.67175269130739
Bi 9.229048760090752 15.60339741710488 9.5591885732479
Bi 10.98750109420381 14.84085156709524 15.69653998863802
Bi 7.79737701799077 13.437571569693214 15.136730759668277
Bi 11.056254204353289 15.550606115507716 12.0490368587125
Bi 14.45658921913995 18.07066339853552 14.583832006997374
Bi 10.672653328266447 13.95636898577604 18.598403856248048
Bi 8.223897933956716 15.879196868841115 13.313266446496337
Bi 13.07258900870274 17.89680572582061 17.341629722380095
Bi 10.327883350865696 17.802402443586654 15.9001608313108
Bi 11.708886941564991 18.372221126242383 13.218870480381899
