46
Energy = -166.91019964 eV
Bi 17.335295243720875 14.956473862704664 9.706376738447307
Bi 12.609280988272747 14.621134715565935 7.791080396630218
Bi 16.418871671519526 11.881560599765681 7.953523277290022
Bi 12.505656249668098 10.400644793211294 7.306906529838194
Bi 10.232102643674658 12.915972159030883 8.759305191952246
Bi 15.52366831084733 17.57177977786918 11.029299786093857
Bi 16.32375454133569 8.790147265626702 7.890933834741474
Bi 18.362586167921705 16.85574021162594 11.84435204166478
Bi 11.102281510658269 16.34472669717902 9.742620204382327
Bi 18.216008311856108 12.097768258144221 10.418031255915777
Bi 9.428767526606627 10.352205289169914 7.2012490899139
Bi 7.8679313065806165 14.607410826505422 9.924046703832754
Bi 14.559336878096202 13.460374759643559 9.882568095604936
Bi 13.54349000095918 7.582346630546453 7.5412963346672806
Bi 6.295302617287079 11.95280447298496 9.5948584291293
Bi 13.08629498932809 10.434993882134034 10.373262909821326
Bi 11.617705033252374 18.07226592578311 13.003089824214216
Bi 15.943144238034076 10.816582605473812 12.324771779636215
Bi 10.624624593094717 11.768015496472882 11.60221724070105
Bi 14.47810588892737 17.18849806972813 13.73767276828585
Bi 17.947233577496252 15.815512576179161 14.677709479307081
Bi 16.243832419771973 8.073183774685507 10.875231185425392
Bi 8.602767675465525 16.297026456454255 13.060022555583398
Bi 13.510522464236894 8.551245481507213 13.950286586160221
Bi 13.073880369032798 11.501323710643332 14.654115291628033
Bi 15.472270540231925 14.633409809849642 17.20946318226529
Bi 13.262967063293985 7.402790093222463 10.719979739410004
Bi 15.509332611103023 13.95846519016114 14.182576530908221
Bi 11.98926898259244 15.158195287157847 16.07415974577679
Bi 10.03332880716452 17.4833764771887 15.57398464233602
Bi 12.195965910261528 15.114525706710873 12.243668421361182
Bi 18.412511463179573 12.815855327454864 14.384452630301835
Bi 9.663660891837901 13.78514664930398 14.630871419304574
Bi 7.197806277118402 12.788505584342845 12.38988535235262
Bi 8.55188862943171 9.921979302811216 10.070352577805131
Bi 17.838113049902173 12.686368251512132 17.394004768246926
Bi 16.485528641875998 8.666452636814403 14.523471284409892
Bi 5.8131326574488495 15.128809193924264 13.836047117039316
Bi 10.10735984774689 10.438308041146811 15.052857544953532
Bi 13.781834982989908 12.88000415775754 19.085979929651906
Bi 13.554116610776857 10.356709440166133 17.42022165655368
Bi 10.886305824309 13.862361541010797 18.596082980163146
Bi 16.541502974529664 9.903596539496322 17.324922874744768
Bi 7.215400460972055 14.298491174015028 16.44575056717837
Bi 7.224574598713369 11.30764873953522 16.286938263848114
Bi 9.754105322086282 11.036823300800537 17.995389772542946
