44
Energy = -160.34690538 eV
Bi 18.297525304901214 11.366955861897717 16.84556824373331
Bi 17.167792089202177 8.02103812745859 11.325426754104786
Bi 15.2844880099272 9.79858307153972 13.10151629294721
Bi 19.26981006100861 11.886269399949235 14.0231686216256
Bi 15.193985131894058 10.39474923374688 19.466449661706708
Bi 16.316482245157832 9.215954473572792 8.667573779653896
Bi 15.251671988658487 11.407431352563538 16.550648133859625
Bi 13.635877084271987 9.139047910135103 10.558703965736518
Bi 18.892769776119113 14.214663540638565 15.95284695498886
Bi 10.859390856744472 10.293090759483832 13.736680046138652
Bi 18.554213484447082 10.473842692720913 10.211782266324049
Bi 16.857608577207525 12.235184055855878 12.113352867681337
Bi 12.697234232364668 12.103276313038604 19.983834908126056
Bi 17.62288525519074 16.378476702560384 12.805524803956677
Bi 15.325892122484433 13.34862778494029 18.937884974451705
Bi 13.538868959149628 12.17915016471891 9.86461977281658
Bi 11.696904974595988 11.655800164686786 17.119039091423627
Bi 15.645005577858814 12.604174515257673 7.6187482568849525
Bi 10.504998738465845 9.87897834767336 10.774032558005768
Bi 12.443691668165208 14.46198381020012 16.16610220748263
Bi 8.447845747567733 12.04622588996637 14.015775010544376
Bi 14.565273928625544 14.859642051363096 11.265455643209924
Bi 16.94850227493039 15.001364500144605 9.019305372597342
Bi 15.421287847174767 18.346749666822223 12.025835868619666
Bi 18.227598076877275 18.171620967939212 15.277616102587853
Bi 12.634420682365043 16.236081844614766 19.21512954008142
Bi 10.073824546877194 14.756315874319899 20.002086076877507
Bi 15.395381456681735 15.426046330979004 6.411966579920904
Bi 15.934611570234793 17.04840160703974 17.015317562656023
Bi 10.513579123488345 12.687488207348103 9.5844259130901
Bi 12.272919087640439 15.83184903337796 9.44047521365139
Bi 8.641295892166601 11.90844499032801 17.05138602783018
Bi 8.137705948828494 14.832387446971861 17.68493268887194
Bi 16.047782040421634 14.737342014906499 14.89471732604552
Bi 14.82059565334369 17.39287556998522 8.69389975550423
Bi 13.002578843786386 12.693717446589794 13.569351322078326
Bi 16.42492353968394 20.38393817282862 14.21147379531637
Bi 10.963983799507668 17.03416140917311 11.937929938436675
Bi 10.24595772693668 17.771941755353367 20.34738104039838
Bi 14.152078149335466 19.275669505313775 15.947901793090216
Bi 11.089137700195957 18.211618334549172 17.435022102535992
Bi 10.434828534832269 13.99380081643011 12.40482090449838
Bi 13.400044882422618 16.970756559377158 13.888274115338858
Bi 9.89698350962338 16.07451842300188 15.58625284593334
