45
Energy = -160.9736407 eV
Bi 13.030783675298498 16.594996873644103 14.589206288456266
Bi 19.686026152607845 6.150836738977752 21.085925708350107
Bi 21.115107425934514 22.998813840740855 20.15140570879752
Bi 1.702861882161224 15.491141259560163 21.535721758594814
Bi 16.740679616032164 5.808058915821895 21.89898645254418
Bi 19.25066859988904 22.312259953149866 23.570808940347696
Bi 5.714422274625123 16.482236663340583 19.868618589096197
Bi 1.5400870287641977 18.849461647598158 18.953675863105776
Bi 19.935118319940173 19.526999021370404 3.051812602283424
Bi 20.756813914823276 23.415183096768676 1.5426022723826847
Bi 4.548818456404061 19.14735094734544 18.81446285469322
Bi 1.8762355954728112 16.951187606776358 1.5030456167010755
Bi 22.907865480133477 17.093082646138136 0.28036391385546944
Bi 23.33782588359093 16.983253242130772 21.63998455025068
Bi 1.5678828965177338 18.469249097075274 21.95817711521386
Bi 4.049395303536831 15.445740898124832 3.0274253992136773
Bi 23.150488917982926 0.5139096471602124 21.458327401256973
Bi 23.476461209480775 20.0503365669093 24.284713107795103
Bi 16.193655314754615 24.03771954689971 0.940974317677947
Bi 4.8008191140403165 17.292114710497962 0.7715926367631875
Bi 17.974473747111265 5.740320625365542 0.27192536564220476
Bi 15.215176826383262 1.6924569071277484 2.9404352415309836
Bi 4.7545642438827445 16.704350317339117 17.04959740609396
Bi 17.829342976105675 20.398062539826505 1.0386098545338152
Bi 23.013865918573686 4.836567066776465 20.528003995386527
Bi 21.16053416915247 2.435772523110402 20.150158277189707
Bi 11.830400460259865 15.196532097845125 16.494820277223205
Bi 18.13262183298236 1.6612246872831329 2.046765322854429
Bi 0.6262879834868883 21.67795029475828 19.844198281170417
Bi 3.33290975670579 14.812271783891187 19.026258679666814
Bi 22.86969760351237 1.5351455068720692 17.566545058720102
Bi 22.891939074683012 22.333831209549448 17.72113277921019
Bi 15.966690385022094 2.596272869766181 0.156552921663605
Bi 23.791038153825173 4.532393671573283 17.58733584046898
Bi 22.43846022028507 1.1289756119465808 0.12087457609008839
Bi 22.399124679061458 20.201465719159376 19.932554370389656
Bi 20.809161130813795 19.740971948954567 22.905390245448327
Bi 20.73244512677143 4.796536024326469 23.62249000806594
Bi 1.3910733336329346 3.8467907108872583 19.739958659528288
Bi 22.466581218072356 21.120415526746196 2.5346352020708633
Bi 19.9012712932265 1.9156059600649844 23.17456622413913
Bi 18.25509884356919 8.202960541647037 22.860449128632315
Bi 0.9103388661140823 0.8695016934065127 19.113449415062217
Bi 19.687472598388318 17.746739020191054 0.6302820463293
Bi 3.392510557342028 14.717551394584607 0.13842171557972008
