49
Energy = -177.99965745 eV
Bi 6.854107997807548 11.073323319232657 11.901171227238756
Bi 8.331765151632355 8.515999157202062 11.972328386378951
Bi 7.221512405139722 11.854766848040896 8.971944409405491
Bi 8.158616116226364 11.716570945793752 15.489363536336208
Bi 12.34196110904918 9.911495722265704 17.183961471355143
Bi 8.934933098168933 13.344016910244624 11.11315526359832
Bi 9.821015967807758 14.18925204127608 14.74244367396895
Bi 9.82954416799688 9.31969819541182 14.563185326777303
Bi 9.770257789631746 11.45355786714437 18.095626757521295
Bi 17.447334523962578 9.076447386641169 15.872172434264428
Bi 13.618795788015106 8.079282507290618 10.295762647535684
Bi 11.688918766304077 11.215785501093261 13.026363331394545
Bi 16.200776754886085 7.990906943361705 13.28416734188106
Bi 10.88942059355173 9.646624299362706 10.548698943573687
Bi 12.309552384186052 12.992510103316617 17.37177165342837
Bi 10.223736661091662 11.964900281901038 8.654362515060262
Bi 13.26733683538394 11.345845438906416 19.72246163062182
Bi 15.17675018013819 11.151707033468266 15.729448889247777
Bi 12.851793459394564 16.549797005960865 15.06589780906839
Bi 18.91632469971778 9.371738478994942 13.226939590899292
Bi 7.376979115498968 15.721572189792871 13.670940023845708
Bi 8.986841205832537 15.635622595959509 17.31822871897813
Bi 14.997022721169712 12.106815195456301 8.917306216414069
Bi 10.827371729917147 18.723681711588664 14.282183323565322
Bi 11.86951074684105 16.423248924756468 17.982423211034142
Bi 12.490342710795582 14.80144400115028 9.84174468678975
Bi 10.485827870390553 17.123447529452818 9.483223254782887
Bi 16.23095711145649 14.246882522665759 19.826581787405214
Bi 14.094875307505152 16.091103976423653 7.511100658712489
Bi 14.790470982006184 9.2760415213995 7.7314698156130985
Bi 12.603758292959395 19.09931988361499 16.715129445670566
Bi 16.162396821302593 11.40289318011735 18.64524027338396
Bi 14.581412608182022 10.349879185587689 12.10128671266546
Bi 7.850698670800713 16.255122796066935 10.708446621228834
Bi 8.19735436024146 17.985164642493118 15.566874220165918
Bi 15.83383912852537 14.52327140687189 15.222422049914746
Bi 12.748859908840613 17.47510776632514 11.434936945978434
Bi 15.686567823016818 16.35916490440007 17.70699114076072
Bi 16.27626701432276 15.076640566394346 11.04188538973753
Bi 17.16098247361614 10.011818374535197 9.477338389306063
Bi 18.570137802564677 15.621112162013487 18.47752524073716
Bi 14.143969393008824 18.75818844460682 9.021391088759152
Bi 16.658176321325104 17.08250615695377 8.80800452274864
Bi 17.732403005710466 16.285445797514623 13.499193535008198
Bi 18.359068208290665 13.276607644323345 16.507331633927134
Bi 17.76339856675932 12.372843510075272 7.686904141946626
Bi 19.79906978579943 14.06974409032338 13.883544012767562
Bi 18.88722023509203 13.711717577721116 10.22680054223881
Bi 17.75328535547733 12.142885481848046 12.645845283699419
