48
Energy = -174.94159318 eV
Bi 19.40613238803577 17.981343500083494 12.296135434962238
Bi 19.635468977375464 17.021669744163525 15.194827049689799
Bi 19.115957819800332 14.036453819114874 14.72232192921012
Bi 17.05445386804139 16.265104386480832 11.336315873241963
Bi 19.51146723889093 13.220878704363285 11.82072793073662
Bi 16.376744674924637 18.78261816576476 9.730470624138873
Bi 16.989597175677147 19.838612175032672 12.540820074803488
Bi 17.238948236788975 18.60909765647597 16.285007739701037
Bi 16.335710627945193 12.00033237392348 17.635399532280626
Bi 16.405011396317086 10.7454819770916 14.84231351677
Bi 17.738873425192725 14.007699128448882 9.413763885594207
Bi 15.30516752463767 17.719846156843847 14.089312853173858
Bi 15.559082148955317 17.32044113814241 18.486504409959142
Bi 18.824210635040732 10.461018201991847 12.896266901852961
Bi 16.134232214966936 13.820693643379114 15.151188403636128
Bi 14.663868746658359 12.538130314042153 12.254876322192482
Bi 13.764387711546226 17.71598057932924 10.984193304670308
Bi 16.491863552518016 10.355770235580712 10.95652498549269
Bi 13.390400832740871 19.92697543897627 14.88326878250835
Bi 11.024915857147548 19.067311591477445 11.152736369843787
Bi 13.366790279357279 12.34297292131489 16.977537013776587
Bi 13.03015288246412 18.808524800343662 17.69965072893594
Bi 13.402037362913514 15.880705458963384 16.767335889175445
Bi 14.76768523662341 13.149842827618139 9.258969340540194
Bi 15.466342136367357 7.612446142384741 11.839640843142517
Bi 12.91109441963029 15.561628484190692 8.712517058088794
Bi 11.50125327340071 12.054139992584377 11.651427660615802
Bi 11.48003304835132 10.862171952837624 18.866909458977034
Bi 14.270153801285465 7.949054614629616 14.604336116892066
Bi 10.632830502583595 15.966119876631803 10.782136992653871
Bi 10.990677663021708 18.189043210057985 14.101491008386319
Bi 11.893315457827532 6.058840650444675 14.143597112373124
Bi 9.270936106001257 12.962857632014508 18.799442116932422
Bi 12.34140928092197 15.51588371778484 13.39012079658505
Bi 10.42300108893576 15.555729741706605 17.60518325158984
Bi 8.501285390323334 13.773458401468462 9.859612864811902
Bi 10.505163972962212 13.742305479312572 15.170241173648247
Bi 12.58826703038419 10.473640324959819 14.5468942464109
Bi 13.271805988411487 7.615248426903041 9.783003146815982
Bi 10.826821354046173 8.929868312925699 16.59386271932964
Bi 11.640023689435377 5.4425148531315335 11.187688470020923
Bi 11.039114413713346 12.800269846936015 8.665711554472663
Bi 7.66762797827593 14.179106581036278 14.257677629835932
Bi 9.708760901266686 7.435920024979424 12.579857122336394
Bi 7.301718474868397 12.133011072426804 16.571216506737613
Bi 8.543471657653619 9.91586868268292 14.914233078299262
Bi 8.21814427405381 11.881330161490693 12.320545642207646
Bi 10.857459355391423 9.349048838065821 10.431990041856036
