45
Energy = -164.19743991 eV
Bi 16.782085389467028 10.3252926206311 15.028449611225835
Bi 14.453173893057755 9.570026891264117 13.18726304414077
Bi 14.953921644489315 6.654184734910702 14.095986772458414
Bi 16.50614203554823 7.611987963105092 16.530823765189297
Bi 11.611685110785608 9.08448761424744 10.746303434500517
Bi 15.136402147156607 12.822890925503788 16.06467000391208
Bi 13.585325885334143 6.855520922884252 16.79979580593047
Bi 15.789781221161672 12.28650949860364 19.068576181248826
Bi 16.407070003373708 9.397268075776987 10.813890432946344
Bi 15.727861757889027 13.66836316544213 12.479879362269646
Bi 10.125075608186377 9.255612114451175 14.052857114968885
Bi 11.41716835273494 12.685764284922971 19.478795794058776
Bi 11.990777099676171 17.591500636888025 16.3750429735472
Bi 11.40816437415104 13.081328731325339 16.3448759547596
Bi 7.4930121088297374 10.11823727053774 12.749297043510595
Bi 9.891276036574535 10.394885605243545 16.854234166768563
Bi 8.695550457518967 9.753427390025227 9.97710584492201
Bi 13.980709795072094 16.39223401944455 14.303608275839004
Bi 10.978317440783492 12.554752974519564 8.177801627902332
Bi 13.417314308539664 10.395764675475432 19.511698128115565
Bi 9.606446719606069 15.611372046694648 16.434216000517303
Bi 11.548810229632306 11.585532906581948 12.606755416698926
Bi 11.327667696486003 15.35162553780947 12.34869224099921
Bi 12.438576214987878 9.867537882979386 7.92017881927342
Bi 10.082967835419819 16.20939399552682 9.612349827824108
Bi 8.812572372349239 12.495055338641626 11.377251514918179
Bi 12.47128495845029 14.168813982497484 6.087281227605594
Bi 12.203263435694891 16.81865300288736 7.521666946917333
Bi 8.514054589684154 15.765774797973116 13.560970609546402
Bi 12.90763497761525 9.80934600266653 16.570822339706364
Bi 13.702839793914075 15.347638674845394 17.74023617720865
Bi 15.21181842167327 11.068660712270368 8.575290273689932
Bi 13.900038758594034 14.166969155713566 20.564100066915124
Bi 13.49930379085441 13.185644902715165 9.962234368085795
Bi 14.180567856717216 16.854587640503034 10.562254360605085
Bi 10.244411085083476 19.158698923008032 10.4133559058831
Bi 18.04316568623202 11.683778514231843 12.004417198184973
Bi 10.413876544278764 18.126867743883217 13.334459229023585
Bi 14.842417697380649 15.044357080911231 7.942192484302204
Bi 13.261046714507343 19.718616416915047 10.484887004860456
Bi 16.369302417172577 15.674634626945489 16.19639781631499
Bi 18.03322737071788 15.662836253012175 12.510829998060915
Bi 17.57295975516514 13.96641086819949 9.97814875836016
Bi 16.844728097858535 18.186133941710352 11.241896337981132
Bi 14.733401854367205 19.215229862076853 13.201841900060948
