47
Energy = -172.09071856 eV
Bi 15.323706519331152 15.654031517305441 18.670684402899305
Bi 10.835694411358478 15.152318726655258 17.70643109212735
Bi 14.609200605662028 12.670728928909817 18.963600829295192
Bi 10.05015552067509 14.949187500497523 14.730682294504792
Bi 11.117336228577035 18.557778671865954 15.97906573265726
Bi 7.594859743330099 13.618107422200227 15.911859657465975
Bi 9.1679444926072 17.71756794977858 13.792155031293818
Bi 15.28635738145398 19.27165753110982 15.734949936899126
Bi 9.779711894066814 12.24967711088727 17.58928632766296
Bi 18.101885089324725 14.691742689884045 17.911695568650646
Bi 10.73540921956989 17.08583790154942 11.199655643765091
Bi 12.802666850578323 20.97345747855229 14.99116620007352
Bi 13.540459736420472 14.283127607159688 16.61152180490445
Bi 11.177783225637173 11.14961500856235 15.064758308919819
Bi 9.85619439429388 12.501305645115371 12.082593462450042
Bi 13.400535181640729 17.237314618059017 14.436578728526268
Bi 16.995238295884654 11.925681096234104 17.091081239690183
Bi 7.258063205169106 11.711766948931189 13.5119352082683
Bi 8.544360041029634 9.553375262379662 15.214457542623428
Bi 13.19154227897189 19.47153518633495 12.328547561218894
Bi 18.961686724843748 16.031529454108984 15.29298557078489
Bi 13.582862216720683 9.838354011958478 16.48533512736648
Bi 16.204932549034464 19.854566264254682 12.864700215291498
Bi 15.144763294000052 11.800208095855304 14.664695648596428
Bi 7.951638691149699 8.384173264159926 10.261512514476888
Bi 16.274703701611568 15.338054423112839 14.147247672584006
Bi 12.856873545073077 14.841756283616313 11.547524786367003
Bi 18.645713590025956 13.257779474834793 14.046424502097903
Bi 8.953886740544961 7.458015607182093 13.002350636448316
Bi 17.12973598949322 17.12358633096538 11.806395382735936
Bi 14.698571919312252 16.698365383951376 9.97798133261461
Bi 15.103355658465018 7.670976743651727 14.88722203076089
Bi 8.884419247567816 11.243543443039604 9.509362501864636
Bi 11.514042326900404 8.792662570899614 12.109018312808715
Bi 17.27336007935626 9.639578293438985 13.983658678208437
Bi 8.912064140392886 14.728139602520187 10.16971645034707
Bi 13.751543418557164 11.305743785675489 10.716915916194823
Bi 11.607833495995438 14.371252885502054 8.76815256885926
Bi 10.804381850477357 8.018562553890876 9.267357001138999
Bi 11.756534442581197 11.185005746731743 8.366135425569057
Bi 16.96133977666465 12.940208462208371 11.420902658136539
Bi 13.73130208412924 6.75154284972258 12.308836486184083
Bi 17.5310796139946 8.66807687048242 11.088073063608574
Bi 16.74811853673945 14.669391922767103 8.927824767099802
Bi 14.741962188971312 8.462853522408956 10.007840762672476
Bi 18.182307764747325 11.100925679504106 9.336801953930971
Bi 15.46022325444628 11.972416071121327 8.19257367143635
