47
Energy = -170.65151947 eV
Bi 8.303209844324485 16.32832794172386 10.980729853390667
Bi 11.002716597135786 15.658059018152699 9.672159738696243
Bi 9.624091513736825 18.54401167602718 12.60487464823672
Bi 8.317620952507284 12.235576665082164 11.36954207637129
Bi 7.725285464143033 15.558293700709925 15.823104961294517
Bi 7.096573662924962 14.479011620354381 13.029810484262413
Bi 12.631876344722047 18.30796148630492 11.911691019537646
Bi 15.966771528522356 19.197996776385835 11.30591098137065
Bi 11.789001019690232 15.17344017305431 15.137911420407848
Bi 11.595656766100063 13.277491962229202 7.844842875441502
Bi 14.656306182456758 16.141245756352795 9.186273914207224
Bi 13.333993871052694 19.266216032972537 14.762571114176573
Bi 9.92475875848125 17.619146008794363 15.451228371236672
Bi 7.730766803823206 9.777690858553282 13.093692056595053
Bi 10.048235333529366 14.72316781405518 17.65209148061004
Bi 18.718322244007723 18.623944735414597 10.103772834256258
Bi 13.168352628974366 15.269972408658086 11.785333660084566
Bi 14.661979630482804 13.224114261559935 8.239365007632697
Bi 16.229870605295005 20.138600916629226 14.179827308378735
Bi 16.320959074858106 16.435159571840405 12.74735733015385
Bi 13.515988479478464 9.431611114630954 8.77085394612933
Bi 9.490844847438911 11.056594048750712 15.185922701792732
Bi 10.793507963242604 10.74280140425415 9.318821885118833
Bi 17.738037835980794 15.945665459274739 8.978565117954581
Bi 14.47892578092268 11.487991803242524 10.782859187263428
Bi 13.893055537635318 16.78483101291658 16.68427078868951
Bi 11.282047014471237 11.995132633952734 12.14355179297713
Bi 16.83443140673904 17.29567356341437 15.639487318652087
Bi 15.320690086275093 13.253476911442041 14.143453173246911
Bi 19.123981412328572 16.007961288139054 11.676247868336334
Bi 10.227198573693913 8.19914999256917 15.626681185674416
Bi 12.870941547375004 11.942072597134201 16.537035046652704
Bi 10.528530585121938 11.828386072804419 18.50402933430543
Bi 10.808070624713364 8.914005778162743 12.650489458658889
Bi 18.73410291316113 14.857163969581121 16.318098768670296
Bi 13.071951851683504 13.387524836219551 19.301555930414708
Bi 15.891721851483402 13.961875958553314 17.11104053248878
Bi 18.43271637748572 13.298555531498753 13.719010829913001
Bi 13.087802800805035 7.2867831167110975 10.872020182149505
Bi 17.217458277900615 10.23858892467264 11.479687829517825
Bi 13.939111165896586 8.901678667099063 14.172156770762843
Bi 15.049022599417084 11.202385515630507 18.501160832699494
Bi 13.014046523298058 8.102047810657481 16.963916626898154
Bi 13.418543122058134 5.961436997510113 14.76944082220315
Bi 16.96023101551719 10.68286243912323 14.511956407760504
Bi 16.107135961758107 7.338115100393914 11.367866106991647
Bi 16.27589217173021 6.966548107817937 14.411952776633866
