44
Energy = -160.17494165 eV
Bi 12.984295274985634 14.391115538562733 9.37409974925791
Bi 12.550924004857418 17.938114898993778 12.706901508121332
Bi 18.384767013647078 8.21709694909028 13.627343882785803
Bi 12.282540098076735 14.808336385720446 12.310456424301208
Bi 12.42882380598379 16.43686787281697 17.095337212714963
Bi 11.84611240938561 11.348448478506663 13.120551841231824
Bi 17.5421820048064 14.861686993319328 15.436103895796428
Bi 9.724315005505302 11.283556014277194 10.939982943329461
Bi 18.399682630460912 11.173622827785753 12.224921286114219
Bi 13.999227006152513 13.056791264718473 15.68555143298862
Bi 7.485942970227866 9.992203595813143 12.803055246513209
Bi 14.150078214314155 17.12924936536554 8.802934240313862
Bi 9.719836630773608 15.929554707135297 11.09639430405832
Bi 14.22380855424052 14.343622607562875 18.42276890838836
Bi 20.233979228111206 17.121926987053474 12.393284336970877
Bi 14.838966339076908 17.521558583748167 15.508546771433943
Bi 16.395168360217472 16.475551244524368 17.858519519409683
Bi 18.413035448548857 14.674925298404833 11.622660896310446
Bi 8.778361730556405 18.220208559779493 12.898150860213605
Bi 6.56862006968579 16.358212266226584 13.95230854554144
Bi 15.608569218820827 8.28480311145212 14.902639864755148
Bi 8.809616910489702 17.27985784150597 15.7885891778123
Bi 15.773874740703013 8.798410070222456 11.896211976848004
Bi 15.406958216088404 11.855403061509545 12.424447365549558
Bi 16.04770873163171 10.889542657409823 16.503489312457518
Bi 18.815750754407667 10.965002663919948 15.226595898194946
Bi 20.05637200368611 13.760188909790548 13.926660757986214
Bi 11.57193255588965 18.338617084994233 9.864938806290041
Bi 10.510122921203605 14.851815837486157 15.21649893745527
Bi 12.55646491519172 10.762138573599854 9.066444573819668
Bi 7.701887850664957 13.767823102300017 12.7822224106639
Bi 9.092579323747268 7.616565585946097 13.746219893462271
Bi 18.095279641013367 18.89969481851502 13.42638270563736
Bi 7.543222775319309 12.017600026644683 15.235404311699666
Bi 12.226144377445156 8.266060477849956 13.040885740407637
Bi 10.117377284673253 10.209391003410298 15.416496536362429
Bi 9.97604691435789 8.179059030793157 10.765502253084625
Bi 15.633915403011446 15.434641561779083 13.001519030887016
Bi 19.567986147106183 17.240131684662106 15.389386166933756
Bi 15.185901396326326 12.251981631338763 9.420946580080079
Bi 15.357570791194124 18.13944704444881 11.489838715758347
Bi 13.035425940338433 7.965136227481494 10.031684936545906
Bi 12.178451323520639 11.37842135458521 17.552466668558548
Bi 9.731178353331265 13.116621488725462 17.555658862730482
