40
Energy = -146.02982049 eV
Bi 11.584630897408683 14.228092191668203 18.396827021332953
Bi 8.740595584135427 12.101920469953253 16.12457928566409
Bi 9.996896876867712 14.955109440212146 15.869435178006901
Bi 15.168936673728679 11.180670395554168 18.302369077187237
Bi 14.54094596881385 14.086477765508407 17.69319803110205
Bi 10.5810550951135 11.368259272198138 18.50568791479312
Bi 13.260293102120256 16.45070157998621 13.716889849231597
Bi 7.8097738630130245 13.286046090446652 12.87148353032688
Bi 10.702539125359666 12.722177574166826 13.909124236747358
Bi 12.765472706603452 9.49450162551849 17.584315432470575
Bi 7.203300150181879 8.982439022194676 14.096061097175452
Bi 16.712657038456875 10.413941551336265 15.703833490982069
Bi 13.961415323849982 19.37549962702253 11.018966046583637
Bi 15.77004174220442 18.004620822239655 13.115171508344243
Bi 14.103847363805562 13.637089142134897 14.752956291957844
Bi 11.052807055111302 18.37115439575141 11.363470942023664
Bi 17.086310182953724 13.143433827511013 14.364240116885133
Bi 9.830420005305267 8.552000488428412 15.63655752371899
Bi 11.040387363707765 15.292839185856385 11.156323119315761
Bi 10.844266014519512 8.409897530494225 12.754332367348432
Bi 8.768817047925488 6.404415448614047 13.757052106587913
Bi 7.441786029141326 10.576782017398648 11.492078628105839
Bi 10.275882212492643 11.186599532804628 10.500336765889768
Bi 14.567303729300113 17.144908847061345 9.053632639050257
Bi 8.156313980633545 14.940211317093858 10.253057935902651
Bi 11.51978550253069 16.914890687257554 8.649720701959495
Bi 15.164542750004404 15.421132311778177 11.546740459305388
Bi 16.73509283936641 10.988852402685453 12.212701781993568
Bi 8.800266001885106 12.669348957202152 8.287357675476033
Bi 13.826073945140397 9.923259381235404 14.622134606437914
Bi 13.67139965334609 7.2897424674837925 13.031534979129738
Bi 11.310636816436134 8.832059379601013 8.8922082164971
Bi 13.385430754084636 13.361524183109177 9.05898869115518
Bi 13.804283438195608 11.50057773457203 11.778469015758
Bi 11.307059466210811 13.495128776656165 6.798998183848558
Bi 12.948416017062778 10.836186717044686 7.251217745512544
Bi 17.826879676760186 11.901285349512058 9.399748254001274
Bi 16.319371351530133 10.100461967021724 7.6392248787591654
Bi 14.070472922956347 8.829170988940069 10.31461130135795
Bi 15.982978797491038 13.13832588284185 7.361113242234085
