47
Energy = -171.70834441 eV
Bi 11.927296582741844 7.170458014903348 14.54824002841362
Bi 13.346275678995598 9.507098743319576 10.339061797886828
Bi 16.017521203333636 8.450357020346562 13.969692170058533
Bi 13.69707161125858 7.092741390661298 17.086636944016007
Bi 12.097543267177299 9.024319944269427 18.879044903846335
Bi 15.913421150885837 10.987690519390203 9.864473825877516
Bi 17.567602174446364 9.009269718860805 11.39441436476112
Bi 11.944894582364082 11.933266129117888 9.073269031172872
Bi 9.846186695237817 9.409053813849315 12.019148965487938
Bi 9.570653428480753 8.177504688099784 16.16913655341662
Bi 13.251856664763581 9.774640613118446 13.412422138264397
Bi 17.43535263707174 14.746030898998464 8.65045948524573
Bi 14.451289068413395 14.832349482704563 7.892634015144768
Bi 18.866321499043444 11.752176735583436 12.333814702053154
Bi 19.681620525171464 13.294810745517234 14.980536333648478
Bi 13.088278863422708 14.372256574445226 10.600168907987497
Bi 16.26226777796194 11.518668816001977 14.080798823964919
Bi 14.23537162221672 10.081805316102727 16.915642225016054
Bi 7.743450724618466 9.40630756753498 14.160752527506032
Bi 9.13323063778668 11.88811863041989 10.327319876796533
Bi 10.551685353434284 12.650060044091134 19.166472328170382
Bi 14.692225189517515 10.275061334324143 19.885699304198887
Bi 16.724286481692065 13.828772137206338 11.475406984902289
Bi 8.248231789888237 12.591844453895813 14.985212777878962
Bi 10.684599217705657 15.613952923455688 9.18150664952518
Bi 19.267215474498453 15.379924013198245 12.896919725240734
Bi 10.562223467188373 12.291294901038174 13.01003776950244
Bi 14.933705226858574 17.334463224377288 11.747183242383114
Bi 15.409681567499877 15.253700851676287 14.793013327707461
Bi 17.890395315829487 17.107748704915586 14.959625412185929
Bi 9.141966902534234 15.520330338192469 15.713881231080277
Bi 13.54973177365831 13.121935373876063 19.59926940446752
Bi 11.285778244888034 15.779235125512855 13.594570615939409
Bi 13.111709557119672 13.504144259364137 16.55151400552336
Bi 17.02211335818188 13.26051940019896 16.522276903346906
Bi 14.906946339187096 17.893970784933536 7.646019187764577
Bi 8.925816783328429 15.32103433783209 11.688427466439608
Bi 10.711350747452105 11.175546574494186 16.399108756441464
Bi 17.282585893521915 17.648813607111926 9.537910673048941
Bi 15.336136337147025 20.21323576139114 15.493957517713248
Bi 13.038055047674964 18.921057016089822 13.992472690004435
Bi 11.197159954039794 15.43086980142236 17.97906540631734
Bi 16.961528156138925 19.25116601735159 13.075938525252294
Bi 14.054221143534756 17.572058445920995 16.452876839824587
Bi 10.718494032775503 18.58349589757285 9.863681402422126
Bi 9.669122015316757 18.208790127421732 12.70920071216744
Bi 13.6386185529121 19.431139498805905 9.974173838901478
