48
Energy = -174.97579823 eV
Bi 8.041121525707242 13.053065752928637 7.323159407658762
Bi 5.8586859988545275 12.207856332195774 11.142030027410346
Bi 7.892500382267181 14.245683399317864 10.128035107923045
Bi 7.573507554878529 9.411959302592317 10.753364066197346
Bi 10.897637059312544 13.84489659233256 6.632845859771372
Bi 10.219265381274209 10.939119002232795 7.172822573300651
Bi 11.748672063615127 17.26076476223824 8.20341352415547
Bi 10.484510660255683 18.439318476881 10.696278481539121
Bi 9.351801038652031 11.883536743584969 11.399837462575297
Bi 9.27375369882824 15.065866278049453 13.872727198893747
Bi 13.25847967991629 19.345129943039495 9.813777445701458
Bi 7.541950232036456 9.113514102367343 13.823394234659258
Bi 14.73100242478895 13.527282048745795 8.163707668138418
Bi 12.107158169555236 14.476902142484446 9.40305303782304
Bi 10.432976162163076 8.11582667272437 9.992026805559206
Bi 14.427102828040882 18.657899823076576 14.153561076382847
Bi 11.870848594146974 10.715524977388815 9.724067569114132
Bi 16.929658729290157 15.033698714645036 9.656126423545997
Bi 11.524036045686977 17.03792630282516 13.218565598808484
Bi 7.283662572945805 12.195240679381806 13.807151554361594
Bi 14.80774083375677 17.275519496133718 11.41967434965678
Bi 11.435574497220456 14.313853881154715 15.98350991526297
Bi 11.947132706354209 13.966577375697566 12.936419759862865
Bi 10.495966779082854 9.821591706301799 14.041697321157057
Bi 17.50292032750422 18.75867248403049 11.312394636317736
Bi 11.360722529066232 7.224299712570009 12.745442954837989
Bi 15.424852092917236 16.853921484116764 16.35501138209668
Bi 12.4345134426942 13.115331527284182 19.47174230516247
Bi 14.385266885043228 10.263354671731138 16.46700857900411
Bi 14.507405495494467 11.211698783529593 12.595301536502442
Bi 10.347377619802527 9.03172338439627 16.941538474370248
Bi 15.351540187172949 13.79297580399826 16.288040082841515
Bi 16.60202382732906 14.415576402593423 12.681576375742592
Bi 13.341958920660712 15.96704233273364 18.573538227896815
Bi 18.211525535561858 12.21839217662596 9.46523022753199
Bi 14.227078145527775 8.134632228221554 12.343029923781213
Bi 10.243458830169189 12.029951689572178 17.667765612228063
Bi 15.400181327976435 10.915760108458558 9.647078161708512
Bi 17.47839998125413 19.11070483262834 14.355846322933113
Bi 15.091603953336628 7.57299378002053 15.234840711588248
Bi 18.6893373611741 16.60830574224003 13.084076776397234
Bi 15.2340879705755 11.971866542232625 20.111924978548924
Bi 16.120699075584373 14.690018161099884 19.103048461845646
Bi 16.906150843589664 10.360604187926269 18.09913306136516
Bi 13.066090721891683 7.779593863971163 17.53603502146008
Bi 17.282652796360573 10.418705173248068 13.7278227554218
Bi 18.045911239806173 12.315456990806794 16.02495687672005
Bi 19.010058337857885 12.542931454906155 12.382227448154174
