47
Energy = -170.43178685 eV
Bi 7.1794696176109865 18.375898579772 11.066481217711003
Bi 7.648601835846222 14.485364008875937 9.279838421061962
Bi 5.7438166698464235 15.730598382638115 11.263274711697447
Bi 9.589761471202646 16.811924558769388 9.354464202874043
Bi 7.398335928319306 16.842399186338184 15.370934120260499
Bi 9.030018287020743 18.436621613448008 13.38573945613849
Bi 8.729967596042858 12.0216890061266 10.811021029551691
Bi 11.76199657380656 14.74081083545564 8.138788049245923
Bi 10.874205211631388 16.256284628824403 12.067089181108027
Bi 6.52743843850945 14.316287515348103 13.92342497657601
Bi 11.593065265333616 13.133803131259574 10.627958610951788
Bi 13.153306671332572 17.990874767655622 10.985072874359913
Bi 9.745034363427393 16.329727544651444 17.24225017587652
Bi 9.489853148290758 10.27950278981875 13.669268524629501
Bi 9.424822246686128 13.534772518287719 13.462980758991206
Bi 14.442293310126018 15.817774118891977 9.270614889289606
Bi 14.324827952684739 11.796809308153891 8.892231080056334
Bi 11.983836499883166 15.171403270023752 15.519630553313746
Bi 14.939579155988222 13.569716104605133 11.331247499879252
Bi 17.77455523792269 18.7639614301862 12.776121764632544
Bi 12.69005816819413 10.276932469334048 12.587457466295264
Bi 8.241435500316086 11.95962128117658 15.879578809946707
Bi 14.801636388984864 18.724344613824123 13.457365960301708
Bi 12.257602928435801 10.268560487686123 15.815661736363927
Bi 10.545954017747917 13.34902236715645 17.503849228016833
Bi 15.664406834973922 16.29090565863919 15.100563901425884
Bi 14.26404969854706 9.086609097246257 10.070096980943992
Bi 18.06504608901301 18.144146942174245 15.761629151826991
Bi 13.802642168760286 16.613914111414733 17.50999559844642
Bi 18.982912368327955 15.950874519657365 12.289958801901399
Bi 17.49507666688151 12.74244027395456 9.81427642215148
Bi 14.916080985009756 12.41069683788238 16.24724903177565
Bi 17.260214760696186 9.804016597154382 10.785406819537675
Bi 12.002614908676568 7.69657746878936 13.970616664385707
Bi 15.452284158489697 14.308747330771498 18.643909310809363
Bi 16.053118553329657 10.274027513898766 13.561304664412003
Bi 17.498002271995606 13.615709753694526 13.681855842038066
Bi 13.482933813092622 11.95903636926105 18.896027326755384
Bi 18.504125204813338 14.196029213770988 16.529861901997972
Bi 20.342809130060264 16.2285703752751 15.038525341328734
Bi 15.107979426367761 7.410576102643982 14.047277377056826
Bi 19.834961981329677 12.550376935643648 11.995096986285319
Bi 20.039624101011544 9.614424789429634 12.465940322706787
Bi 14.458063996280474 8.31924341721517 16.844637710075677
Bi 16.336752603772414 10.515780543656886 18.117104377647223
Bi 18.54847011537864 9.212660990790054 15.09759544938607
Bi 19.32025488919608 11.256559342255334 17.151645590496237
