47
Energy = -171.93158571 eV
Bi 6.843804483308799 10.963120650622649 9.353311484098827
Bi 8.192982963141276 13.67306895820176 9.205318955609949
Bi 5.867970413836833 11.294576796012148 12.240510755475947
Bi 10.305059694767104 13.282044846976994 7.039181924684802
Bi 9.272899137821286 16.871949548768875 11.383171125041477
Bi 10.439674545475489 17.321198676431393 8.606649719155083
Bi 7.074310661293368 13.964159247645073 13.076747449177253
Bi 11.564336187174638 10.549150988121227 7.623059554455681
Bi 8.75848710300766 8.795010888817247 10.431228190270604
Bi 7.3900517417703435 12.250593346397407 15.586006312637439
Bi 11.173032507092506 10.575115813560185 10.61247394923899
Bi 9.87889586208125 13.851907673683947 11.747301829657665
Bi 7.92916603075126 9.23823341964002 13.360626635632395
Bi 9.985930666275191 11.330530675524782 14.320109730834197
Bi 11.618273381673287 18.78478253176222 10.990903171461396
Bi 12.525976810589844 15.134292061726928 8.013846747056363
Bi 9.819184191594276 15.892610734860897 15.351436834288268
Bi 14.369780160600154 11.580203822216896 8.204411077033754
Bi 8.569407334855882 14.25356645952253 17.552577615930154
Bi 12.37640660562742 7.683560069019339 10.853200684117448
Bi 15.926297755161048 17.29627559650029 8.806749964176154
Bi 12.360097764250334 8.83237898040561 13.742730338190645
Bi 11.063612227445423 10.116183504923331 16.962519447230996
Bi 10.925477812369897 12.683128905549527 18.6531560110557
Bi 13.574365663364748 13.526233478442336 10.436957298270533
Bi 11.769284497349805 17.062596251089776 17.409883735754235
Bi 14.933261943843757 9.532753621560536 10.533291124900938
Bi 12.333381653355167 14.30207102408312 14.543170520147417
Bi 14.601393517234873 6.675296125346801 13.188513493371993
Bi 16.405116378493403 14.348598199547746 9.435757916785164
Bi 12.896220547142992 6.530720380223768 15.721127709888389
Bi 14.044920945027485 16.952434308613107 11.216568716029016
Bi 14.936557611898326 11.152805138668068 13.282202488795235
Bi 14.002583643052175 10.835034600930891 16.564993716782606
Bi 13.257971331221967 17.26540305235962 14.708584690410685
Bi 16.706673534243798 14.504187176606756 13.995265652646935
Bi 13.212731794977127 14.338683025186418 17.472469950154405
Bi 17.819322769518816 8.680686119695304 11.12338918417424
Bi 16.708327524703236 8.78806952342796 14.11700006294214
Bi 17.775745590159897 11.65349938295801 11.735953304765571
Bi 17.98493110665561 16.51505915173914 10.940261542126102
Bi 15.130042673454524 8.109155901229066 16.993459239521666
Bi 16.329137356481354 18.424525753342635 12.670892757708707
Bi 17.37055261313097 12.674020435360848 16.401550120893624
Bi 16.199567985134994 17.121697977714422 15.45385564859982
Bi 19.284212378978253 11.327110876594004 14.42982439311139
Bi 19.531936900698007 14.30248659764757 15.062248075810961
