49
Energy = -178.39142407 eV
Bi 16.32263327449851 18.801316212750713 14.107839366076751
Bi 17.779658775272384 18.262643269018675 10.114262797284042
Bi 19.886604652324557 17.257520103240356 14.474684748949706
Bi 16.084819674295403 18.140749262750763 17.104680907026758
Bi 9.854389539004012 18.52575492313854 14.487137450436439
Bi 13.249755974638903 19.337031463323022 14.146800092693631
Bi 8.8353818726364 19.11746448959768 11.664914981881976
Bi 14.834860557612439 17.654711701794817 10.752775377466907
Bi 12.992424173955618 18.201133784968285 16.999144427875088
Bi 19.589397946100892 15.73587573112303 17.092878021524175
Bi 18.618306628224286 15.94894622040396 11.980997196860256
Bi 16.339277295252728 16.07980933994889 8.596789255834283
Bi 15.755960288378331 15.985697132202798 13.227300846792211
Bi 7.75538662603096 16.30340502196021 14.394951209403313
Bi 22.289092855348024 15.567672232041714 15.203868552323366
Bi 12.065612374223862 16.611708748051548 13.45224716870935
Bi 10.438961086909234 14.895987446398875 18.607084442948896
Bi 16.31627107101706 13.640813782716762 10.524071046812297
Bi 16.463748427046042 15.134499307682251 16.753766938836986
Bi 10.874849533533284 16.921980120241578 10.658752498598417
Bi 12.865483843480632 14.51316862762902 9.359003459968877
Bi 7.983435734787295 16.197179280300325 11.36088078373941
Bi 14.620475816473064 15.165625760208787 19.211369752322415
Bi 12.866827367435272 15.103265673187554 16.72409960562341
Bi 19.028214916807453 12.939715353869572 13.394835928080793
Bi 6.83188790545981 12.605476702380303 14.540473251272426
Bi 14.277440070708982 12.158052437552369 19.472960749252543
Bi 9.595680375940448 13.909861328404542 14.910113372605021
Bi 8.060306460921733 13.041152631848727 17.43995012013705
Bi 15.387064833986082 11.737710156938435 14.165404683228344
Bi 21.863784104944394 12.668367436045953 14.4439869244342
Bi 11.223954287366482 12.261113083126846 19.674232519446694
Bi 19.497215615317874 12.716713269547437 16.390864752973215
Bi 18.133820679881783 11.618095973435336 9.153584065023855
Bi 9.631084869907852 12.593993498389757 11.765023492299568
Bi 12.794416506650894 12.597204463705125 11.786102910965
Bi 15.178414649913563 11.954324548940718 8.219413044135164
Bi 16.02392234832613 11.166287244018893 17.124619894608287
Bi 11.208115259014065 12.00185977385421 9.166963927408906
Bi 11.974874920645211 11.050400365604599 15.822420549263681
Bi 17.912039075313455 10.110263587049864 13.793592590162552
Bi 7.615621414205635 9.745279692492542 14.795780708637249
Bi 17.162522878804293 9.376295341922814 10.885338575805472
Bi 9.512991098834837 10.34464673132179 17.42312073932249
Bi 9.29480826675228 9.621894640010135 12.24202377759133
Bi 13.944310565483493 8.929889714144082 16.890843456106996
Bi 14.125589528881966 10.06074286096585 10.364746498025047
Bi 14.48653437120588 8.786440553066859 13.843728108657245
Bi 11.410951585652258 8.619992086233674 14.169580967719682
