41
Energy = -149.17218692 eV
Bi 10.31901525276295 17.51029735031858 12.764350559039913
Bi 9.176975500079873 9.495877797827076 11.152550736026733
Bi 13.955191162910312 12.167776977367986 14.922706139002493
Bi 7.821771785392501 9.637936409981926 13.87647569985237
Bi 13.522273960138396 16.48093899969237 11.543039025589858
Bi 10.548902715555682 9.8346315846794 17.229155426461993
Bi 12.200891020611786 8.69816808992972 9.394826451859778
Bi 16.67991012380276 10.701739715510719 14.792596303533662
Bi 15.711766114782009 14.050574573635291 12.250884968838893
Bi 7.45515093618656 12.798208279488447 17.106632310926813
Bi 14.374090496050071 10.902578586471973 6.3118254331025625
Bi 18.53029980250456 12.607974976446403 13.164148237966922
Bi 8.116447705267436 15.520821485259258 13.544740426726712
Bi 15.27808070968465 10.835376538823379 10.659158041487492
Bi 16.1560851595232 8.618932748025538 12.636570979082052
Bi 10.017313517486894 14.544660652724923 10.340296214737817
Bi 11.807166031291665 13.443282179325122 17.38934115664599
Bi 15.821666544917182 15.861094021126009 14.816299567420996
Bi 19.03332937196107 9.599103634542972 12.20657919947424
Bi 14.232549062641455 18.590174775848446 13.655419231592903
Bi 15.127312149292514 8.81655160575004 8.408819326904158
Bi 12.6721894888714 13.207872762254985 9.21837800502179
Bi 8.838985880587536 11.976278256679112 9.41275785354005
Bi 16.570406581752465 16.612006557777345 10.762162413682736
Bi 12.462531996394437 7.9892379947849115 13.67604522504138
Bi 11.642355956599287 18.754514905275435 15.182449673259814
Bi 13.499494482622017 15.04496307402887 6.929851920387186
Bi 13.417862986955866 9.430803689136921 16.220997585778328
Bi 9.577266168335333 11.820250757072776 15.101595783703436
Bi 9.760059750805054 7.653959835654065 15.163464623171686
Bi 11.324554741981226 11.009468595907935 7.52757649918586
Bi 18.19089612987309 11.761413982040503 10.257234711515082
Bi 15.768757526993657 13.530785616031972 17.008851052183772
Bi 15.670504404763403 13.131219783548342 7.744200516606335
Bi 10.95276188473074 14.487823658424938 13.257190406399731
Bi 11.920152755506912 10.453953043546797 11.984579297696124
Bi 7.429849354101612 15.778937627179282 16.496563080241888
Bi 14.447639129101942 17.339971104222105 8.734015302472935
Bi 13.89666064104085 14.938211650707183 18.952153884757617
Bi 13.005734395671483 16.122108240313192 16.214772411535794
Bi 9.291243927696037 14.691264318712838 18.6187942888986
