41
Energy = -149.79403293 eV
Bi 14.170330700083152 10.700341228036136 17.331370757748598
Bi 18.564767418981965 15.673672453029045 13.799804261113914
Bi 7.947475491177564 14.278740632334323 13.579141907162581
Bi 18.04821219450261 14.086686564723186 16.377250675335844
Bi 13.272567539846534 8.543990206359663 13.715097631770597
Bi 13.280227431844914 19.68298246463482 14.312458203990303
Bi 13.824401591482125 16.121828894771543 11.561851477680662
Bi 7.299913929829007 10.85314224618338 11.686394325807012
Bi 8.712258777179633 11.512890154450872 14.426308701319568
Bi 14.54721587221277 17.270866527554002 16.30455406978299
Bi 15.495544682942727 14.283309466818954 7.324966223820078
Bi 9.784311297473405 10.009781962230935 10.152946028083976
Bi 18.07804713593374 11.140962445035088 15.360142695260523
Bi 10.570966616294655 14.260051326297688 12.033796557475279
Bi 10.98584681535406 17.17508589567967 11.107116028551486
Bi 19.101228156005906 9.797939084759946 11.018381908928903
Bi 11.172859476471757 15.782938303578154 17.736756082315296
Bi 7.476054871355365 12.534014008014099 17.168338322431246
Bi 8.751154328086896 12.878505345419477 9.93155444616322
Bi 11.793196387182109 9.049912725474053 16.332794552505934
Bi 13.44932736794751 16.18246222201762 8.518472021934977
Bi 13.947953548378363 12.291726955906173 10.804069487015813
Bi 19.318045922432574 12.219300436412105 12.815539747456517
Bi 11.684548605044805 10.863923230924911 12.406271430064354
Bi 15.067165623822115 18.847790292952542 12.001930055887033
Bi 13.065562602862874 11.888564643939699 19.893822264215203
Bi 17.698276983398728 11.002390151658993 8.561497444100747
Bi 10.637174497156678 18.241772209982425 13.962163023332794
Bi 12.254084634830221 15.796834134321172 14.853250344992647
Bi 16.807235016362554 18.093157062220627 14.422658323368399
Bi 17.745095745158718 13.921300476124765 9.3377015029898
Bi 12.741155272694364 13.233732222268618 8.18001490805139
Bi 8.197771009116103 15.317526155004227 16.480105267284056
Bi 15.034537378232885 9.787033981555448 9.497634616058818
Bi 15.379195517933233 10.964126450948369 13.817738641797357
Bi 16.699770154373397 13.77681130965843 12.212511831906166
Bi 15.003796944531182 14.077541286520745 16.212530700693808
Bi 16.41253673084844 8.70739885276076 12.040225443276121
Bi 10.44533704351999 12.818362763755113 18.30689571159842
Bi 11.863741711582001 12.028094168805216 15.679948156312625
Bi 13.978641543766457 14.610043625110613 19.041528788647422
