42
Energy = -152.58895848 eV
Bi 18.95775579583213 14.614805496194386 11.979137015419706
Bi 16.00347810594595 11.601454070261546 8.971510046745129
Bi 18.112129568884278 12.161190994739087 15.594074972990756
Bi 18.025118695252953 17.52457310968593 11.922785840258152
Bi 16.80278862797062 12.597238231005178 12.70548567040339
Bi 15.73366059241482 14.538257484473569 10.001089643858942
Bi 19.851770138689762 14.57827947136359 14.890682424428496
Bi 16.32221618530164 9.034491853217956 13.685187067326936
Bi 14.132075899469555 10.757014970948903 16.716601645496755
Bi 14.46156265325596 9.379517450840536 10.441130691930676
Bi 12.003314039500427 12.606696508214087 10.036329583991206
Bi 13.89990621617892 13.435085608370501 7.8028261555924425
Bi 17.40806981351882 14.974689425540326 16.68248335683659
Bi 13.702176770876124 15.657221865183518 12.42459898585098
Bi 15.596524525531184 20.249823258519683 12.840318648317709
Bi 15.146208962808196 17.890276900720092 10.920203411647167
Bi 15.145173094693112 13.987021410473751 14.881595431936224
Bi 11.760603392278417 16.559298376710196 9.916390167458475
Bi 14.434619490064883 6.700817515614101 14.203504651346902
Bi 15.734070164110557 8.150120193811642 16.552185567428634
Bi 17.308203320479958 18.448981453174756 14.68942606542079
Bi 11.806695825033731 9.72588602530889 8.979956926125974
Bi 9.849652937918723 18.045001328620923 11.764216995973086
Bi 13.472279398221358 19.926519752211412 15.003833274299533
Bi 9.887197709135146 14.449681060409393 8.693567190374766
Bi 13.787249631263455 10.788063018343564 13.079078087624085
Bi 10.638904875847928 7.779221833149608 11.116238250671124
Bi 11.91223526585526 8.46681279391004 13.874619915106354
Bi 9.782850837795467 11.2625824221542 13.040342394833766
Bi 14.750096911709441 17.184129679296728 15.73996051972795
Bi 12.863850286819497 10.865353796158512 19.49280191334475
Bi 9.919980520271682 15.08202347813197 12.344535730850476
Bi 11.543692516919565 13.267055102148142 15.714974822415526
Bi 11.68857063993018 17.617418675430407 14.246208767524532
Bi 8.720307090779848 11.214145473437217 10.106724368218504
Bi 7.996505529542482 8.987854819538036 12.078796286090782
Bi 7.447704873476338 14.061081784386761 10.627919491084041
Bi 11.674115137382968 9.044536951460715 17.33841400532823
Bi 10.857453461154423 13.078850023977285 18.666343863027297
Bi 9.103366591653119 15.085813207128812 15.405977353321605
Bi 7.453335146811954 13.117354358760874 13.742282765948472
Bi 9.529668921202434 11.178155731606301 16.695371920526462
