47
Energy = -170.96631597 eV
Bi 6.857030440846027 11.054408122764427 13.191992058193211
Bi 11.527530979832632 16.607751881615602 17.705509104723962
Bi 10.593822143291387 11.313135192769142 18.760767454013358
Bi 9.518741270469425 14.869748540479964 16.30991413265418
Bi 5.722239811588781 11.75400731056224 10.351178955282185
Bi 12.371484013209557 13.793946595545519 19.102084523038766
Bi 8.463124082976716 8.691219188397113 12.190927672010522
Bi 6.981159058518066 14.6032839167815 10.266382723177287
Bi 12.863092500101022 10.418574466124936 15.896943574472047
Bi 8.882373799330056 15.252347195332884 13.28797537249482
Bi 9.432362169005364 11.260454040532144 15.763508979810688
Bi 13.433209860901977 16.6273987389046 15.439960215088378
Bi 13.166774419483636 9.670722593499777 18.931320742236547
Bi 13.866609753132904 13.446417905608309 16.395619535877646
Bi 15.681332218209768 17.96645424334037 16.892329584177055
Bi 8.921122443209786 12.449232775687742 11.368028312958984
Bi 10.191137227016254 8.428533631631488 14.740618068546858
Bi 8.219214039946257 10.912918649482279 8.714211943476851
Bi 11.19291055811813 13.305950563807919 14.246443661028577
Bi 8.255205325058808 13.788588296153907 7.628560197883329
Bi 10.740041099241783 16.847203002260514 11.450651095961298
Bi 14.854956034169996 11.963667472570043 20.002915487991338
Bi 11.36687322889381 9.861627870330954 12.30947710416452
Bi 16.23106887757972 11.681384992594726 17.354099296468977
Bi 14.544157375932736 7.453974078087525 9.63130801051413
Bi 11.547220654992248 7.756131374267145 10.139647360952836
Bi 13.57438359447634 15.709015673573097 11.962292524216029
Bi 17.94438963031985 16.108536912259748 16.018377655500444
Bi 18.710251854959488 13.484211108074776 17.406637161249414
Bi 10.874331445804998 15.105922337749604 8.734948842932774
Bi 16.384411665933612 19.153719184078565 14.151458895296193
Bi 11.751339165040642 10.273369332257957 8.294488965810814
Bi 12.301194982860672 12.721375588981845 10.09300598049436
Bi 15.93517640545475 8.028942318961231 12.250094085068849
Bi 13.95064682210612 18.7352265598357 12.336768499516369
Bi 16.537764122139247 14.614929075382287 13.782525602548146
Bi 17.93158851074529 10.037247991871098 11.108210977856738
Bi 14.491362219406192 16.473382725800175 9.090646304735372
Bi 14.836202471749887 10.192058320587424 8.238243220409956
Bi 17.97755299681445 17.04843015489631 12.552080844222502
Bi 17.780975376796675 10.359803833433105 14.174758554551236
Bi 14.81639259723687 10.68350405724746 13.41165454927786
Bi 13.271550288292882 13.39406358359764 7.23443632990786
Bi 16.355106454859808 18.551698061189153 10.39629907444381
Bi 15.684122014497932 12.15407280801615 10.482359065548891
Bi 16.082045766271765 14.131922476108132 8.037455085347196
Bi 19.161162687293928 13.070526480962558 14.400882508237137
