48
Energy = -175.17304567 eV
Bi 18.18817347644128 12.25924067282959 9.502323889719321
Bi 19.756069653700468 12.734852244671046 12.13160876348401
Bi 14.645097556634507 9.666466830459987 9.922204536370405
Bi 17.664081279401582 9.405763052987316 10.507687740386118
Bi 17.64852467981708 14.896856655277015 12.476112845457996
Bi 16.759410947169187 18.808792624425607 11.896785618281006
Bi 17.861567867208425 10.195544879940075 17.656723481818695
Bi 16.903424857677035 15.848142238995464 8.140998161922717
Bi 18.200852280626012 17.30177876175198 14.151376253135973
Bi 14.183954969166962 9.75149806846527 12.937859662935702
Bi 13.930334531629033 7.998677344366308 16.784924237113533
Bi 17.52251310677128 10.905907710852667 13.180548574846386
Bi 18.165576820467507 8.582243221599299 15.067863900293986
Bi 11.91646264343689 15.02823262079434 10.330583016327711
Bi 11.175243526245684 12.140055993670092 9.661962676080211
Bi 17.241187014014233 14.065015934463116 18.82617732906819
Bi 15.181111464229893 12.673601443549325 10.326906018047692
Bi 14.337236042235252 20.123971499350404 13.300981150780164
Bi 15.204365132002833 16.42211441688996 10.628631696504021
Bi 15.471237362049953 7.297845256605662 14.269136361436692
Bi 14.98128864962598 13.592797051515136 7.418944396861126
Bi 19.119101335514532 12.829110853695912 16.766608519507606
Bi 16.560278075988432 13.687314224058555 15.270408385865458
Bi 14.562607007875398 17.866778072991316 8.020001872540844
Bi 16.366765886453553 16.38102776712817 16.813402219695206
Bi 11.15589337766021 7.45676722575472 15.575129763778211
Bi 15.302690519467824 11.937609821098539 17.66321600825821
Bi 11.460601757573636 11.795414341906334 12.652088434533818
Bi 11.353167565784792 8.669275088683662 12.720675923576334
Bi 12.582159804584226 10.675114670162795 16.01615860453358
Bi 12.457651181443127 18.421239937320244 11.582707781920941
Bi 11.31047442807869 11.022677564198768 18.730023845883885
Bi 12.603575638810538 15.591210945518203 7.417829166604986
Bi 8.978408369986392 11.362136993828976 15.198124722079845
Bi 13.39682239920551 15.74918517356224 17.695984819578314
Bi 12.83621939235942 13.807409671396519 15.440340752388847
Bi 9.264755728583282 9.179653108168596 17.397036640013972
Bi 8.91141855825858 16.282741226526184 10.411301135428081
Bi 8.844962651781865 13.275153471953704 11.5387283026345
Bi 10.254751141546596 15.771435385847756 14.131256023555474
Bi 10.20884673678331 13.433826307996119 17.087671280057226
Bi 13.822383630456052 17.304995126077586 14.206696524661863
Bi 9.545887463165403 18.34221010090993 12.58707185780471
Bi 6.321481949143352 12.855614835587804 15.358714203385484
Bi 5.859039965527347 12.824842471980748 12.316387435160303
Bi 11.55231758116221 17.705300596911286 16.17024777040071
Bi 6.333450056722101 15.801780220146538 12.345907090008193
Bi 7.389203551883162 15.742589546628745 15.24292857411516
