45
Energy = -163.98269299 eV
Bi 11.076318168143404 15.52280195840156 19.138433137911317
Bi 12.069156866587518 15.865964596876589 16.12589552699968
Bi 13.607198524316766 14.47843673299768 20.375881557550873
Bi 13.269250853945657 11.653203494397555 19.374551310184465
Bi 10.678104372948606 18.47726389642072 12.140257568028652
Bi 14.26494881467935 13.961255510353373 17.31296588454446
Bi 13.624394605069215 18.014416760285815 12.932648347547254
Bi 15.868835246543815 16.74442979405725 15.450752522201821
Bi 9.578931768243008 14.259459839958792 15.232858654763021
Bi 9.49519197769579 13.10873561880299 18.161313067956616
Bi 15.63618263580577 18.09262807651086 10.562587051872397
Bi 7.10950247414091 14.66603006612116 11.985924794897825
Bi 11.707406467018146 11.765245961621828 16.562346768489906
Bi 14.087581875191349 15.036466559274821 13.560838596946763
Bi 17.527545035153075 18.128854817978674 13.216775358790912
Bi 17.849559563923947 10.782584083830207 17.018384052710992
Bi 11.279033466171402 18.42748029831925 9.160476871741528
Bi 8.927938432948864 16.4556884763148 9.129716072660933
Bi 16.051468567703505 10.355557905841211 19.41958077884692
Bi 7.433645058411262 11.790949978885475 12.934761085439618
Bi 10.594368330022728 8.995459883346287 17.341736273032833
Bi 18.294015752978197 14.839211219732237 15.605559434181137
Bi 7.3587841709514485 12.374880781712132 9.968057137215627
Bi 9.547549436762752 9.098072307349796 14.495257129675823
Bi 10.11770582539618 15.446307587939168 11.835619235350075
Bi 10.492481422066941 11.863556679712058 13.356255667968368
Bi 15.153323220516098 16.567608556638007 7.705485027976874
Bi 16.41523258538913 15.144974151062932 11.173068745677888
Bi 19.044236108442806 15.577282071259942 12.73468931914896
Bi 14.14639121910986 9.686458541715567 14.925827975703585
Bi 16.29716130216189 12.617760323434366 15.115591358882405
Bi 12.661686995355245 15.67367758616544 9.205234986771814
Bi 10.494023058271972 14.612588120273601 7.273652791976348
Bi 15.932836590223475 8.418016205863372 17.05590547603849
Bi 13.930869707788373 12.260169627601082 11.149441480842315
Bi 12.04295318595408 7.482158696889215 15.151527300409484
Bi 12.43766377400992 9.535076038460286 11.208460485311273
Bi 16.8481428580168 11.460139528150298 11.90939904226888
Bi 10.442412403485159 12.656628591415885 9.607351588597263
Bi 16.780281244410737 14.153650450966282 8.288479715993528
Bi 16.335951470679905 8.658677160862334 13.051928317753774
Bi 14.638287655356287 11.796629361779033 8.167116115898502
Bi 14.8416196802991 7.798394752126179 10.522531685960402
Bi 11.748101604812197 10.222407528477229 8.358181381762009
Bi 16.71116580458543 9.814803763021112 9.220774343395108
