46
Energy = -167.43296264 eV
Bi 13.013259432615802 16.907728235332453 6.226038056961895
Bi 13.625054822516082 18.55266968868496 9.737591009803197
Bi 15.57550500381976 17.097929868327455 7.8785227939721985
Bi 11.127632436254316 17.232026545749044 8.768090182096778
Bi 13.192531878703079 18.34267622148019 12.78496232687929
Bi 16.793989157543322 16.980617224373216 11.542199022550895
Bi 14.26146738968365 12.780309413322215 7.004073778136461
Bi 11.677438843553139 14.332550203263851 7.031652256704039
Bi 10.29383914833601 18.79502807198872 12.029449306645228
Bi 11.590565926482247 14.419306391692182 10.263936155227558
Bi 16.214116750774448 14.237574574437193 8.813600060575823
Bi 19.12202687052816 14.991019954796423 11.417367187023789
Bi 18.79260786239269 16.75544853345732 13.859500673581545
Bi 13.49762073287891 17.35621240581068 16.331008408770813
Bi 8.95467366180918 12.901594587738167 9.344443245562172
Bi 9.863162373332349 16.531491194654 14.228231783900787
Bi 12.747815286438165 15.534366479671425 14.007973069938386
Bi 13.421558762024706 10.193346064483881 8.433904790571079
Bi 9.09965956403853 15.931378869884307 11.399861094674918
Bi 15.006514896954245 14.454522250343627 11.619361434157254
Bi 15.67272075598461 10.878168952249798 10.372722430512944
Bi 12.340513031656872 10.832658485339607 11.203248206939806
Bi 12.233092338912929 16.09676893256366 18.848230485048717
Bi 17.318999676228763 12.855858600354978 12.825858332075253
Bi 8.683728580304903 13.889467846005605 16.27093442722483
Bi 10.242419904391049 12.566505674044677 13.96128343066751
Bi 17.868425866007687 14.324086638545644 15.467940551387407
Bi 9.2572308591389 10.151403658451875 10.531239815042827
Bi 15.067273861160352 10.285174788918326 14.231314202916579
Bi 16.2057038189821 16.212723707242848 17.17806071654813
Bi 7.803187335793014 12.269780372389569 12.121351269092361
Bi 14.692164688515621 14.242765739631816 18.94302836571234
Bi 11.798046359745738 9.190124784412708 14.79423038734092
Bi 13.385403393938674 12.829628346875072 16.544448369787204
Bi 13.138362113397275 7.8304877364012055 11.024394493161438
Bi 9.250154890366698 7.956980190472494 13.524649845430304
Bi 10.917312480122593 13.37365817346553 18.27273717558276
Bi 15.97043201886043 8.333823990719292 12.042720975410989
Bi 14.58044860670175 10.587170829110923 18.271853495097222
Bi 17.11800332186718 10.655659008379407 16.58906511207875
Bi 8.347068402966096 10.879136826824725 15.676192235246948
Bi 11.377264839112478 5.894968059698763 12.687265681970155
Bi 15.283222646243933 8.216874686650655 16.49135839192951
Bi 10.4222212683536 9.620539187048532 17.510571808581997
Bi 9.50175919972218 6.852484109162197 16.430160953786952
Bi 12.408036108078992 6.264410558711081 15.534244995878682
