44
Energy = -159.58632424 eV
Bi 7.794521631507567 14.361147869854033 8.867869097075529
Bi 8.912091735141047 14.067475604353675 13.157013885103854
Bi 9.543646127249504 11.898382600154164 8.652781216528375
Bi 9.608023692961668 11.054123737547467 12.87224049055998
Bi 8.379163516630976 17.57867822976014 14.795854264198221
Bi 9.8620573821791 14.155704072355636 6.646136146165878
Bi 10.200985659754593 15.646747726293595 10.355577906922784
Bi 9.067122092361595 14.832687052695386 16.067320551735722
Bi 13.202365450086699 8.839719926743372 12.798895734578164
Bi 11.504597451034062 12.521932624074212 10.941727870828316
Bi 9.351526714039585 18.132518437109773 11.923984323302767
Bi 11.065398936599825 11.225657169978643 15.534408656159464
Bi 13.966507286576727 10.89959611058098 10.063498748377096
Bi 13.618953901573734 18.45495324294738 17.450219366998585
Bi 12.25008166185022 15.970166596936915 18.570817576530164
Bi 15.30291325620791 12.982321460470182 8.292250546174254
Bi 11.44703016228327 16.555173454557682 7.708287960093865
Bi 12.094303922264471 8.310042150789284 15.656859227494625
Bi 11.705264419825014 14.816619343145524 14.456150923084913
Bi 11.467602811677681 17.92097238506935 14.860973879961382
Bi 13.855292915647091 11.516192887982106 14.182894832751716
Bi 14.245259108953302 10.146120310693476 17.019475913922673
Bi 12.15822422534847 19.358835777832383 12.236256825554992
Bi 14.282446154838604 15.85123077422966 8.590747029661271
Bi 14.244025137690691 13.907424054626384 17.368436553998656
Bi 15.808464559498107 8.656210143172215 14.355082260572834
Bi 16.821026482232792 8.697369562305406 17.811685083891707
Bi 14.572349473267087 17.234539999063195 20.10667971886469
Bi 13.587620319048641 15.269939425242884 11.493599976871591
Bi 15.004249568433991 16.70115797332738 15.306405432897002
Bi 19.149853092570655 9.550025654643887 15.93753350982462
Bi 15.126352663027543 12.731043273340656 20.074056822908076
Bi 14.841158698068025 17.89286496379696 12.444503212534062
Bi 15.823641684432742 13.019009678374262 11.340244358698845
Bi 17.391499289190886 13.722280301959895 15.576010542019096
Bi 18.568803243594 16.85601702777983 12.483311938336513
Bi 17.92164541980692 10.4145058892163 13.302107146199553
Bi 17.657056136975914 11.09592567755848 19.554328809729203
Bi 16.564906473969693 15.190954939426714 19.034855211858975
Bi 19.397657091701383 12.2977866455468 17.345488828138322
Bi 20.94450193700056 15.903025616567952 14.15545287667124
Bi 17.678426765038793 18.121486200118323 15.11530171224607
Bi 19.18870372320739 15.978157637035372 16.69760190330412
Bi 18.99587889063754 13.836476656728012 12.968271992657003
