43
Energy = -155.86157574 eV
Bi 13.133971889461035 16.39102865657576 21.764322501283324
Bi 11.698980311467695 16.93009470650835 19.14928382050317
Bi 14.668333838874535 16.38844680048724 19.107967289228988
Bi 11.18501181656971 15.548497313855659 15.36333462831222
Bi 12.73601803109907 14.15496698984313 19.755855301191303
Bi 9.164703776392237 14.189881894541195 17.962248126075764
Bi 15.788221248909963 13.885322251474362 16.76473960061454
Bi 15.59603096237612 16.344782971342877 15.07125665027799
Bi 17.954549127759243 16.037031449074735 16.943218425554583
Bi 6.497391763011314 12.660977186029857 18.202977222958012
Bi 8.583264884857929 16.01654128426417 13.80742659301975
Bi 18.126819403918066 12.138108438667167 15.095792117649708
Bi 12.505176788336422 17.99715345857954 13.961592208738317
Bi 9.086937919419197 11.201392607255816 17.59663113293199
Bi 12.842130242873015 11.505766247633268 17.132191148534087
Bi 14.626328790221933 17.774717271714238 11.731566211132302
Bi 9.883073360783033 18.55606387030583 12.485875175754344
Bi 15.730168083407595 13.052265773949385 13.313145573169924
Bi 17.777228545050303 15.568383164714124 12.651505567137438
Bi 7.748644779228339 13.030849169763425 15.471932615794119
Bi 19.75125321419856 14.70996689114497 14.776721304183571
Bi 12.387933716014425 12.852340000944508 14.307122778767708
Bi 15.355535806865687 9.881583510684184 16.684956489995603
Bi 10.094495074608702 10.808839202774758 14.147326968483492
Bi 12.666293291448806 8.669030740090626 15.970392624807266
Bi 13.031862246692969 18.991275258310985 9.437169460811374
Bi 20.088521152127253 11.410893714113095 12.763060773234674
Bi 11.812142580828302 15.134823701677636 11.176312225234083
Bi 8.777944673017616 14.51987557187423 11.148909023140872
Bi 19.627504973011792 13.695256460242728 10.928101150275944
Bi 19.239783264988763 8.90517756045635 11.275671089235367
Bi 15.47773549349645 9.845038132898324 13.520709104013875
Bi 15.503219978222232 15.4253685505864 9.838241237745653
Bi 10.466334860208356 17.42424214585531 9.711687608661894
Bi 14.155162979135394 16.895718406533256 7.500249068367883
Bi 12.625968909670059 8.984652653317108 12.856296482147103
Bi 8.863692218438793 11.47476153589957 11.436672120134771
Bi 16.352065176557996 8.774476937678822 10.355344706821654
Bi 18.58548839426262 9.79557539491007 8.48376147508714
Bi 13.033026439893622 14.224834432237472 8.513639778953522
Bi 11.895745762099226 11.588350162284213 11.143858026651026
Bi 17.709002593243596 12.733086144686833 8.799441867546415
Bi 15.305348077862362 11.726990157751079 10.382041003004023
