46
Energy = -166.42183711 eV
Bi 2.3573844272826525 20.385054687092033 20.39901777367966
Bi 4.941340925878233 18.979935969408103 19.526833575215292
Bi 0.3110678026947296 17.563538460873133 0.06054153639863102
Bi 20.89184792129764 20.172357509889554 1.33104052266129
Bi 20.377004829484402 1.836306632233774 21.231472947831257
Bi 17.823352284213087 1.6364981663385556 1.3081689736688908
Bi 21.109667801535107 16.51492672696725 2.8578163963740937
Bi 2.507415617358884 17.539135968439588 18.360752793011276
Bi 4.566628893502458 2.7196797362922758 18.142434074086314
Bi 0.7340521659446423 1.116915819618714 2.0191975224544834
Bi 19.78281212867817 20.66722062624088 19.83572406451129
Bi 2.6654638615063275 15.461651237764082 0.022516045124675903
Bi 3.6516385817756642 21.15608503201195 17.738613154132818
Bi 3.4383009731213074 0.9579011552499184 0.6433172326672624
Bi 17.60146134049596 3.2893653077899883 20.335639311993095
Bi 2.629873016266968 3.210201670846962 20.363025916528148
Bi 20.033266558702273 14.579892615005297 21.44109748615753
Bi 0.7431697609385108 13.896860763668975 1.847580307281633
Bi 1.1246077574577813 14.170372748926816 19.31303362902958
Bi 20.683637131328243 1.0282840313533943 14.913007847834596
Bi 20.57055376742479 20.139422742028582 16.81158858533339
Bi 14.714656186136766 18.66008300679227 18.84871917300446
Bi 11.02671074523341 0.318987752722465 18.20969278920816
Bi 19.692655320902873 3.1025420571455036 16.864142611079785
Bi 14.10865557153279 1.5641446828941565 20.479057682902564
Bi 17.85873501472548 17.535814290005312 21.45882972494047
Bi 0.16529547983146528 16.350561790627456 15.526348074746084
Bi 2.1043223871817887 1.6263664747073991 15.300742690055888
Bi 14.081370683741198 21.5501680675326 17.905680911319447
Bi 15.003597508250403 18.664476993115738 0.2957038795599065
Bi 17.498984982741035 16.277229942194637 17.166293761904882
Bi 1.6642801611568945 19.158307024041584 15.830787547451397
Bi 17.820226248192448 1.1049753446750938 18.226995319656073
Bi 0.6958946677497454 1.9348396004824207 18.114730357007954
Bi 18.114220449609714 12.868368892875733 19.781809966587307
Bi 19.40426059027439 13.89534587635376 17.193854399209496
Bi 16.33019277378355 15.365437911742607 19.84371586539291
Bi 20.395657119138953 16.628794828021956 18.280444291520013
Bi 18.264699360591106 15.563829599361211 2.1376843663263183
Bi 16.39775431649475 21.250611589004315 21.065832518234657
Bi 2.273155418235306 4.250379193807643 16.768304074609382
Bi 2.5919961255328583 14.933848199846844 16.757827676038637
Bi 12.052715473416018 17.370170262571907 19.46341491771369
Bi 11.28878821052471 0.522749564189999 21.216895488844905
Bi 9.776245729709096 19.151750409665123 18.595535479417
Bi 10.718666523092677 19.110709624037497 21.52808529911245
