43
Energy = -156.00139488 eV
Bi 17.24306665599439 16.241414811317217 11.53838041129834
Bi 20.25490084241965 16.342005966113444 10.741188101521844
Bi 19.842191791815246 12.265041171154957 15.350256112107271
Bi 19.775216756693347 10.498508722399336 17.86341510513752
Bi 15.01115516663212 17.835207155705824 14.050428405030457
Bi 16.02291727091897 15.96415457767103 17.402611748614333
Bi 18.004339888816688 12.962878274684474 17.736265237360296
Bi 18.076869431850707 13.470608256044141 9.635912522191422
Bi 15.314304643962092 17.912994121830554 9.799427294788442
Bi 18.032687304415873 15.600274040512916 15.039668000374647
Bi 19.03379169258811 15.895057542780382 17.894488172364138
Bi 20.427324314032987 13.434454707306402 11.57654663577512
Bi 20.87185412096733 14.172961163314248 8.677244408199156
Bi 17.976115944334815 18.345125428968917 13.670068613054639
Bi 15.181370984885953 18.87857651391403 16.927240314030108
Bi 14.401056883863282 19.974681367625333 11.878491002918054
Bi 17.224359197210763 9.250686698125227 16.65327714571603
Bi 18.62666324478449 9.811968952966346 13.991067515327584
Bi 16.470547720315285 11.488196405804471 12.544545111469432
Bi 8.889030886325951 20.049727242048696 15.253251113307916
Bi 11.75284099930489 12.106768834824106 10.525372737403732
Bi 11.71174740975588 11.272205060553002 19.53475227253431
Bi 11.87876294911086 17.72453816345715 22.549428776566423
Bi 11.402995898402057 21.64831419034788 14.819640356570686
Bi 13.256833897144345 19.249611695581688 20.297719452947312
Bi 11.539120121607244 13.528367196777268 17.504565036439352
Bi 14.584274417806299 13.155601279778672 10.172248258910699
Bi 13.087242227374773 16.27273492663359 11.09891327888002
Bi 10.817655951074052 20.498408498266908 17.563858970919604
Bi 12.11066719089418 15.474343303918383 20.49872594339997
Bi 12.714656592496036 12.76406646579496 13.370146601120053
Bi 12.229165091887026 14.555662464771752 8.724586004944415
Bi 11.403119316898009 18.71136872738564 14.155272206570826
Bi 15.269550809411701 11.617386769280653 16.09651909989317
Bi 13.252584461291095 9.371601877883755 15.778997788241384
Bi 10.93415882578736 11.32093387268046 15.460748737602893
Bi 13.774190700102983 9.99467546223866 12.769451495347553
Bi 14.235365510442437 12.81244193070416 18.736799459120274
Bi 12.402646030619215 17.85637843594339 17.675904615612726
Bi 11.615004647189277 18.986136580202952 11.110958133218665
Bi 16.52833275093823 10.796599690780422 9.538005350339684
Bi 12.07661310559824 12.883310952605626 22.057250110840478
Bi 14.595039511721597 16.85635365898806 21.588695501674653
