45
Energy = -164.1446327 eV
Bi 17.398196738298278 15.270963173764253 7.737513275714757
Bi 16.858404344617387 12.302511059336178 7.2503702796393865
Bi 14.488606590492202 15.644111202325856 6.905036678610796
Bi 13.929542448759113 12.846368151893719 8.033347593717918
Bi 17.36166078081271 11.370757470157018 10.1235397695456
Bi 16.143290409248443 8.63054248292282 9.64444063828246
Bi 13.919859041323713 9.798102428164482 11.457920861432815
Bi 17.305198201958564 7.653458545356275 12.27590743365874
Bi 16.478413124469316 15.689813372720966 10.709557113669156
Bi 18.040961870050143 10.284087930863787 13.59843369156025
Bi 14.883726621676868 13.132314267473138 10.93157653181471
Bi 16.993527744588796 14.321171894192956 14.418696488065523
Bi 11.384164595092525 15.64525688345808 9.761237616904335
Bi 14.961660995375956 7.970460506408337 14.552450168430537
Bi 11.582051153136996 11.005315713495234 14.506224202603526
Bi 11.404091599530407 10.828685736532591 10.003972598323754
Bi 11.462642273191829 13.324741819318508 11.787239828537174
Bi 13.194945182806187 19.30565743237661 12.406285006655096
Bi 14.045428023366796 17.152840224301382 9.545624767700115
Bi 15.073700202179326 11.033711930910862 14.447032919217463
Bi 11.153547148727338 8.832730557604274 12.399134616023932
Bi 17.44437621594232 8.668017314805176 16.202103453277726
Bi 11.537566477989444 20.32303398055074 14.771913770866473
Bi 8.501880235498241 12.581006823868359 11.346906775425023
Bi 11.122473477216552 15.602444207260039 14.466026495997843
Bi 13.105662519092068 13.559511728091788 16.84202271091984
Bi 7.711610971406527 15.537766964733922 11.049894126225299
Bi 13.490998022459562 8.313385680051601 17.43219306251647
Bi 15.424876167596844 17.71002970404214 15.801344638784624
Bi 11.989164537684807 11.632904606163997 18.942977342206767
Bi 19.01244046432383 15.840064083848553 16.09839436611316
Bi 14.046977732139133 16.524446995814948 13.338477381257073
Bi 10.068209523322432 17.233646312570635 12.045438647744955
Bi 6.384914634711637 14.200551075912552 13.38405186845808
Bi 19.10352874374459 12.811503824158734 16.041980173064793
Bi 10.745944403938038 9.550994647211926 17.090251224195164
Bi 14.564493110546831 20.51586210154063 14.878313538284118
Bi 16.82345929212711 14.232533461990672 17.471739068558872
Bi 15.417538786301586 10.67208593462629 17.560662047728126
Bi 8.467521692950992 11.760932778175127 14.41564349464879
Bi 13.336723013141098 15.29684082854996 19.341828348586464
Bi 8.386585984734754 14.476962316661966 15.654497457657477
Bi 10.590961074832965 14.325623234835676 18.439992944476856
Bi 10.725844245965678 17.92212148075803 16.432702267107647
Bi 13.309782800892037 18.03332292847927 17.952434177649184
