40
Energy = -144.86887487 eV
Bi 18.04783841859638 12.12214049406873 14.617545736348925
Bi 18.470399325834254 9.11173461867998 14.838366788257522
Bi 16.860103825228475 10.589893163866988 16.93688466601663
Bi 16.731709277409333 14.731902497801867 10.98489391867976
Bi 15.894569776067168 14.780535019008882 13.893081566305323
Bi 17.207713686551344 9.441963704763355 10.42644869683538
Bi 14.183677526063637 9.139887958788702 16.416638662694517
Bi 17.416462267815525 12.238953549931948 9.26185258394942
Bi 15.073018588956451 17.48228192168645 12.628719347587191
Bi 16.09160739991077 10.133772099349526 13.259222513594564
Bi 11.78800649802261 16.388701370311605 8.57337984387845
Bi 12.962462501128494 13.87085973908985 17.09487404819749
Bi 13.995587345008332 7.812565902713817 11.991389280310504
Bi 12.621041681668526 11.039526678634356 18.25582449430568
Bi 12.580207814872544 16.897978569645602 14.367481369612307
Bi 13.607903916498042 15.35109785068003 10.853919883374436
Bi 15.315546328292656 8.401112515779328 8.174644047513388
Bi 14.410810416118041 12.590098791329837 9.215463248122756
Bi 12.872887634821504 13.808314049608484 13.97819873735133
Bi 13.48751302945506 12.340378251962163 6.424889924065785
Bi 10.64171213383807 17.982840339135777 12.269913852199549
Bi 10.51682266961353 13.257953086714293 10.426390009851534
Bi 10.977686657868428 13.780054421358475 7.317747313109525
Bi 12.183282959271978 10.392704825063694 14.44136451385166
Bi 12.599489327584037 10.394977212746833 10.971259654086404
Bi 11.300724334525498 7.572293458332533 13.435199857776249
Bi 13.854976966797437 6.047902865731702 9.547961575666651
Bi 9.393066360498656 15.525622893096138 14.980359916215267
Bi 9.141602976373857 15.99334213435832 10.494940795791644
Bi 10.01307204504395 8.58986043958941 10.852880352468727
Bi 9.523455017180035 18.029400900070712 16.840535863718927
Bi 9.944849241116518 13.625912325691596 17.384512377335
Bi 12.52382752414879 9.659202555358913 7.96690934102146
Bi 10.00535200285327 10.64549594444372 16.63339092387043
Bi 7.898821908425228 11.698405117540764 10.76511834302305
Bi 8.545717396724964 19.19633313172852 14.234789780617808
Bi 9.28775468620065 12.20629377694028 13.412458669173429
Bi 11.084642843468858 6.820080719733592 8.631327661876968
Bi 7.235737255180109 14.168433578866807 12.44712773047217
Bi 6.893540866204855 17.103714554665046 15.694290789120549
