48
Energy = -175.14675448 eV
Bi 14.18149479257088 19.188724641542144 12.323915253102507
Bi 12.143786334975406 16.09794463841077 9.738349687932802
Bi 9.164798593129502 18.917916167991184 15.813449830343634
Bi 12.240359065716815 17.07872117917519 13.516816352893315
Bi 11.497009464107762 13.77879529259228 7.839213604131361
Bi 11.931468463730479 17.975185201847395 16.818234439046144
Bi 9.325727909012485 17.963940755384357 12.870011355350151
Bi 15.730642399746024 18.543696438848496 9.77491462522093
Bi 16.111704801150207 16.818173118457214 12.244923392799521
Bi 14.058411135931706 20.05095891720765 17.63493843635831
Bi 7.1600831212041625 16.18848435832309 14.174643005922249
Bi 14.329238480769298 16.741729649525613 7.761461329830456
Bi 13.7419731584297 14.808906700851013 11.976416049504182
Bi 8.561896881145781 16.11112431589336 16.903081503142687
Bi 9.615536462123188 12.2071036874897 9.657933091863239
Bi 11.022203771314732 14.58729455641678 15.863509184644682
Bi 11.214153483920327 17.022426814582857 19.645984618807212
Bi 9.842883767854504 14.298064898012138 11.865003059127655
Bi 16.233115069024908 12.037511141172883 7.305065696690773
Bi 7.512192558764989 13.218940846880534 13.469962658675934
Bi 16.674703343788362 14.902018969670376 8.33198745780777
Bi 13.478601625026974 11.622058195201177 8.611398370700883
Bi 16.252293401113395 18.575884083414003 16.02559043356361
Bi 14.257789979678787 18.19961783044551 20.091953242182377
Bi 14.5924922178642 16.021668265706772 15.995864644213645
Bi 11.680791551337466 11.798807878590514 11.89949765383596
Bi 15.862719687917554 12.690544879770737 10.28029644578662
Bi 17.268258729056498 18.343151840395947 18.907130806023126
Bi 19.100187419280193 14.855493508660233 16.50044775080335
Bi 15.914827451110918 8.911706672896061 9.553842678544067
Bi 9.040365532625417 12.264691998214976 15.901555659709885
Bi 18.162842609476996 11.57007080863842 12.870426699084298
Bi 16.623674105798223 13.962881789628964 14.914024696341924
Bi 11.775284476470745 14.19814545212015 18.854483696050202
Bi 18.027455113641214 15.50399369564157 19.261952659615396
Bi 14.80870325286372 15.352788672718862 18.956421272688882
Bi 10.200469491546492 10.153007374002643 13.975753194035981
Bi 18.118616611286964 8.818576115117782 11.647625202096318
Bi 15.26595734824542 10.12017837075433 13.512403442900816
Bi 13.093323206190032 8.437870938690878 10.749669517590497
Bi 19.078681660197688 12.036399148157424 17.67999334546424
Bi 16.040615869980638 12.152942791579791 17.323454942066927
Bi 12.798897991942873 9.745539707641653 15.522540386282044
Bi 15.101933783690788 6.13468353567686 10.601596262509135
Bi 19.28061195046969 10.08219011952151 15.30657579988643
Bi 16.45797463768022 9.291861252120661 16.232811267743106
Bi 13.054858097200995 7.3758924897996065 13.673173670447996
Bi 16.170580548316096 7.043881703038847 13.42189303505819
