40
Energy = -146.11003554 eV
Bi 15.506005529230197 18.20068943189056 12.312656610212409
Bi 15.421530769340801 11.238808227603908 12.356151077594559
Bi 11.347046715046838 15.57906892708733 17.696594335484036
Bi 17.305426810213895 12.766396320275241 16.319785397687046
Bi 14.613066844585507 16.085336202273876 7.70044323139812
Bi 12.048860086287387 10.412484262480689 13.729041649075414
Bi 11.359392919451354 11.456844416431473 10.03401676373054
Bi 18.865751034618164 13.763610953811913 13.887001935061587
Bi 14.331827608022847 12.950654215917686 15.56569026663852
Bi 8.744448977055436 11.933091330846107 12.919856359166298
Bi 9.071757195399444 14.130799613864392 10.79660820456884
Bi 12.830479352871627 14.611121456596964 11.319715140522026
Bi 6.2635963262380825 15.249833578442436 11.35442487168522
Bi 15.942734665950079 15.338227295025595 13.304157172161096
Bi 8.77218858173885 16.645413873619248 12.519247232946471
Bi 6.185865477994202 13.417087574975753 13.785974690084812
Bi 14.948829803897684 12.037254854899029 7.931515890959496
Bi 14.72037335759944 16.937930422994135 15.561842425458805
Bi 12.330552373145775 8.670677245288712 9.522701726410302
Bi 13.591299672563917 11.368894515977376 18.10701423251119
Bi 12.511964573277448 17.673828225133278 11.596907686096795
Bi 16.354292365165886 8.68460137849666 13.65991948370599
Bi 10.716215063586183 12.294155444875305 17.769261065141535
Bi 10.13113993047154 9.791789473134317 16.012423147604327
Bi 15.235130733009349 9.581437007456472 9.79337710420879
Bi 11.717631373612807 16.958479914935793 14.966736176047466
Bi 11.75516827795367 15.375264023612928 8.483406366524532
Bi 14.34255351696709 14.917409622683145 17.893770484117322
Bi 17.95216694856906 9.823496867681618 15.973211565852036
Bi 20.011317206575413 10.729491209704312 13.954704534449995
Bi 12.585826724534185 8.535303839646426 17.370576073465756
Bi 18.33554102785214 11.807282408521752 11.6507751836673
Bi 11.999940173386168 12.563022154551588 7.284833977402576
Bi 8.64641876903178 10.04039739760323 10.51678923216158
Bi 15.56872555529384 14.270272647933657 9.9451954240328
Bi 13.532969257762149 7.849398724195369 14.550083831876854
Bi 14.501527883557172 18.56610819782994 9.468883599834836
Bi 10.919706565924901 13.953274883191906 14.93486693494501
Bi 8.15942203843138 15.350882865711869 15.194539888599534
Bi 10.639657004720824 8.258228083731929 12.073648117842565
