42
Energy = -152.56174077 eV
Bi 16.344919347013658 16.042040351230696 12.71824208098415
Bi 12.210756267920138 8.823381749219546 6.16462735002564
Bi 12.018556780176436 16.68507588868915 16.92023388999552
Bi 18.345761176364288 14.594562315534612 14.555754498578974
Bi 11.9804038627802 16.91008514173399 13.816594359057461
Bi 12.386853157055462 13.685034910346408 16.89869726311444
Bi 7.934922417498853 8.335939179000047 13.766429119992443
Bi 11.95192046085933 7.7692488504886725 14.175778999153792
Bi 9.296034815619109 9.041464982581969 7.112832167285773
Bi 9.381812812597977 13.869477491476248 16.996392104709287
Bi 13.060948851458422 7.242648986855088 8.635080888865717
Bi 9.941730915378416 10.353439671959581 9.81870297725332
Bi 9.413740326030437 14.687534672632582 9.447899421961505
Bi 5.5080354410381895 9.559428547736532 12.440063253496042
Bi 16.237215917557947 12.611301037445244 15.56412057623699
Bi 10.45580351641305 15.712109726892255 6.756476046414869
Bi 6.248321466251037 12.919900155287536 14.789499414981174
Bi 9.844996244476736 10.725451812726764 13.511993083863306
Bi 14.526822882769727 17.510806059178535 15.39639051481026
Bi 11.947637532170305 13.43865967120081 10.605433596162179
Bi 14.690987490353029 6.410572793276449 13.892446293177931
Bi 13.44949737703678 15.3373078239894 7.0413612283209925
Bi 6.934848546814981 7.250961672383317 11.070068423939405
Bi 11.45885059159614 13.912608803714155 13.776707748511255
Bi 15.777123849790426 8.248796790262366 11.712642158670894
Bi 14.72168597585825 10.74557872511722 8.845857991944545
Bi 11.065847723227971 7.735709755783756 10.997425154717574
Bi 16.420991108360383 15.120821333457473 9.774968140106528
Bi 14.705250498272955 13.459003317843534 13.056559387989825
Bi 7.9164735920013385 12.743787832369211 12.213682107249168
Bi 8.418138840756649 15.092086152373328 14.259681587340829
Bi 8.280715475816178 11.1341592762531 16.174157633266283
Bi 16.359048245900553 15.419804010154783 16.71047783270297
Bi 12.895947095869706 12.318364146711362 6.923103933767914
Bi 13.278753626916322 9.989951159241402 11.506767696174304
Bi 9.832023887795087 12.715977703333994 7.137946702957172
Bi 6.860384302250695 9.957107975010027 9.718761910148189
Bi 16.50872683788482 12.281530824867797 10.808480480022595
Bi 13.457235071972477 15.984896706611444 10.015149785886852
Bi 10.676821837648214 6.315345975208699 6.979469835097859
Bi 16.087432194376863 9.017868195504622 14.637907864061896
Bi 13.283318025480467 10.40746421172725 14.772430884412799
