47
Energy = -170.9260422 eV
Bi 11.778788891110809 13.496774123846036 6.608536387396903
Bi 14.812399955312864 13.384908236384359 6.940881716355327
Bi 13.87234616390688 10.624128133824744 5.889240637165607
Bi 16.63954445453934 17.28441441082686 10.856896721070926
Bi 10.915533399446211 10.595267425133965 7.301550373180168
Bi 8.403726952567308 12.281266198965662 8.247301801156423
Bi 16.89049252865841 10.684563725187342 8.54009812975057
Bi 9.266028151916649 16.816037341768787 9.208722176978641
Bi 13.92247056103441 17.191437535926855 9.541236928439114
Bi 14.212658605250077 18.262761895759372 12.383899030218341
Bi 17.37338764569417 14.168910153061594 11.044918663051874
Bi 10.58809060082247 14.118305730234574 9.347792039200039
Bi 14.976390990855581 12.598055553388216 9.918308625687363
Bi 15.864776259661342 17.948579217442308 15.76916481188488
Bi 12.007435249287253 10.450729100568882 10.191813224420542
Bi 17.965376068360662 15.86835215922277 15.184275578722017
Bi 14.452632939044634 8.88967483011781 8.181018995297807
Bi 8.810948536433242 10.734903884248316 10.789821000460313
Bi 10.573111648404991 17.43309012092289 11.874528149540003
Bi 7.983271375153539 15.794493261292425 11.807160829766312
Bi 13.005214995471194 15.50554729762304 11.937698753063337
Bi 15.644053024627134 9.946616129400304 12.435970576969792
Bi 19.492066160325635 11.93573126220839 11.79272678303964
Bi 18.213780755558048 9.340765713239952 10.945736245745323
Bi 11.85249170946632 7.417998359587542 10.529375145766487
Bi 18.711224685663826 11.718937194403212 14.818169689040703
Bi 11.819388822083347 16.748414954675862 17.61573533760961
Bi 17.014342447308223 16.29990258286362 18.0300880683851
Bi 16.33141621513619 13.48790732405401 13.957614666171896
Bi 8.203875910235126 15.865276521709227 15.512372493034574
Bi 10.154688972597503 7.179027295448976 13.130511098367835
Bi 6.973718666539577 13.285691839565024 14.485444320570048
Bi 9.43346819157516 13.173426761843395 12.633075831499372
Bi 14.396728823207528 7.165062939423082 12.238648473245437
Bi 10.984371764382354 10.014602120051626 13.749138889025367
Bi 14.45772000909263 15.378557165355792 16.636878617927916
Bi 12.721171255203444 7.68934378114432 14.734741395854043
Bi 17.283591453041243 9.039031385981493 14.846767338770144
Bi 11.114205654993205 14.989336272687993 15.229115071076832
Bi 16.018979937594505 10.78029200715983 16.98493306152479
Bi 7.568032248823464 15.741976637910343 18.52771182686314
Bi 13.868009432765838 11.506663847521997 15.156499504304227
Bi 10.31159139278955 15.033571979791716 19.64030933190413
Bi 7.518449640657088 11.249425369633682 16.681485773507344
Bi 10.333516205366625 10.116029766530238 16.722237710095136
Bi 11.860718480957155 12.744594037964479 17.200287848644695
Bi 8.130553366377367 12.863224025963055 19.159453909537334
