47
Energy = -171.52168972 eV
Bi 11.659954971568858 15.569228139793124 18.264503881225572
Bi 10.858167620527427 11.637493110588752 11.401378160586795
Bi 10.073191209008506 10.499503959330065 15.037027211573218
Bi 14.873976649057576 11.298426921826634 15.331626839072772
Bi 13.537723304234891 16.28136661637736 15.95529832719545
Bi 16.15381178809509 14.164083481137236 19.861708598853355
Bi 18.6974765260085 19.442361860238126 16.4379074528962
Bi 13.082654177592854 18.908033173489258 12.144027818805297
Bi 11.454308577786167 13.181627404959668 14.476017434905133
Bi 5.78117416203992 14.541931204263546 13.102736790783768
Bi 16.037136017224363 10.382492779880602 8.868555580741658
Bi 9.318568034062029 11.409006587729134 8.685985490971191
Bi 12.119650614375283 18.859809552305798 15.025114851527954
Bi 6.123925698480626 14.352539591394338 10.09784028578233
Bi 15.845226474905543 14.26595263146138 13.196174780033417
Bi 10.429980325972107 14.168938646526708 8.092449546759541
Bi 14.446685448292937 11.669173856372776 20.042044372572274
Bi 16.705363952948655 14.59021639995147 16.858290153490962
Bi 15.80062550231438 20.152962888457374 15.674638693507546
Bi 9.44711250546613 14.323433657636242 16.521075769949906
Bi 12.005059961609748 10.027362855526325 8.442241381813613
Bi 18.84054262043999 12.755678948868225 20.158990002471675
Bi 18.219676639540957 12.346690629518577 13.697819842680344
Bi 14.817998504254522 18.309450041131786 17.889447395387396
Bi 18.32129069315017 15.956528597029326 14.01960606704431
Bi 17.73923547021259 12.924828198387486 8.838996058559426
Bi 10.306541804893335 17.88128983360909 12.710214303573878
Bi 15.621531082631183 9.8134758673397 17.94202316175109
Bi 18.578863139967297 10.431042840279797 18.240805537929187
Bi 8.776361940973542 15.944070944430702 9.918507997161813
Bi 12.75851471171737 9.080647857845758 14.862402735258907
Bi 12.686451769829665 12.72054958779672 17.753387273077955
Bi 12.647764401688036 9.049286262135169 11.747556904917074
Bi 7.028780572270858 12.077652879607331 11.909829260653776
Bi 19.399675846430455 13.130219253812745 17.13578416064173
Bi 17.63490455341462 17.16305170006529 18.26191178602435
Bi 9.842946772605643 11.603711279148085 17.918042984344265
Bi 8.890678629626928 14.436792688301606 12.63897171352374
Bi 12.79252354522441 13.72759129861587 10.057864678788514
Bi 16.196760953670278 15.122950663557381 10.238810650480684
Bi 16.767390807510385 9.667762314789943 13.528555547156179
Bi 17.660792627739802 18.868037005601757 13.649710280998185
Bi 13.911760596963086 12.080649373252303 7.4957430413612425
Bi 19.768403997242583 12.772101562243673 11.097628703274998
Bi 12.633281357221884 15.881601460279846 12.472120137915773
Bi 14.906319561263674 11.079097677514467 11.59549706753841
Bi 19.12714018506871 15.777202222716669 11.031035591561047
