53
Energy = -192.43363077 eV
Bi 17.950905687171247 14.125185712926374 18.491605150898213
Bi 18.006211100861435 17.963490463491187 14.656767184373217
Bi 16.630756183485623 16.86364259072206 18.6806290268094
Bi 15.218577516551605 14.37055320291258 19.686428674786946
Bi 17.909401619691405 13.02867588552066 13.62376286165607
Bi 19.46683153081508 15.829901010177688 13.138804242374455
Bi 17.68034893907376 10.006356493430912 14.658224144594307
Bi 15.584493824473347 20.06661164579532 16.655774233590737
Bi 15.543442407446623 10.663069332633317 17.801024132991614
Bi 15.406933483761948 16.038372932539442 11.7226196610846
Bi 19.862814293211542 11.590300198389777 11.802024534448599
Bi 12.733036908197345 20.535035016621496 17.5990505548949
Bi 15.43650003548377 13.531786350326524 16.72260127104245
Bi 12.319707406633665 17.466008714350856 17.49910820230356
Bi 13.3060982511664 10.355196129427192 19.873694844303934
Bi 11.584442039448485 12.86125570243196 19.950332359510465
Bi 14.647698891672956 9.601169622369873 14.621068487943086
Bi 11.904109223780223 13.600966281249974 17.035031943052076
Bi 19.503698603013998 13.526260539387453 9.463184138570938
Bi 15.684027739595695 12.588177975435697 11.497736233527709
Bi 17.28355620119641 9.902861355563136 11.63963825841255
Bi 13.609870139797993 12.370043817332505 13.910137460380401
Bi 13.57098583343225 21.39575085434607 14.820270192453142
Bi 15.16151912769395 17.04370820827726 15.943840048469044
Bi 13.675731405503372 18.677861583131342 13.322689501714843
Bi 17.00505852439435 12.160284618831989 8.519899244637456
Bi 18.214349614122785 16.189751456034124 10.418971143800478
Bi 12.924765398709257 8.824456470610087 17.267371446602013
Bi 13.558739572640972 7.56604939911695 11.848387164963968
Bi 16.540517998518016 18.866926264960224 12.198758981569656
Bi 15.817949579624106 14.74762394849873 7.591501757032498
Bi 10.698202798049822 18.083389326042614 15.049488829468933
Bi 12.94186221209226 14.2991253090198 8.695254822598336
Bi 10.983500377682505 10.163300054266365 15.242488580252516
Bi 11.589560590860055 15.38044684893553 13.806249642785014
Bi 14.473470005391107 9.638855641076244 8.575794456947
Bi 9.3501325499286 12.174719896781115 17.9649329215165
Bi 9.418183575293211 15.247294076208965 17.785466680254725
Bi 11.464142153408028 7.332334601220297 14.099777311485967
Bi 12.818199221684516 10.40987872315919 11.030903583833751
Bi 13.23219220475131 17.789543840134932 10.310722488084686
Bi 13.557083512351028 13.93142423773209 5.736944616402449
Bi 9.571350672338003 12.550433265495318 12.708521839053578
Bi 8.121562694477998 9.015799516252068 15.777298625003814
Bi 11.963866558114251 8.03534818400077 9.265071784843396
Bi 12.468442546900201 11.573071091719145 7.297542712900549
Bi 8.738482708827556 15.665470141899537 14.849290291408986
Bi 7.472952412418372 10.31330456711899 13.126983299835814
Bi 10.514445057309365 16.75262923703899 11.293608818525765
Bi 8.564123440491018 7.478833127328522 13.180169854293156
Bi 9.47422191902927 14.855764448600135 9.131496912529562
Bi 9.5565235375847 11.845126978227668 9.750334301943797
Bi 7.313335920843856 13.591672161417167 10.905312548532141
