51
Energy = -186.65925273 eV
Bi 18.874754206592705 7.737317762800881 13.347340444429305
Bi 17.140496374461968 10.673998981894385 10.049122092456908
Bi 18.155570799672464 7.50176979803978 16.304513365680442
Bi 19.885424629148737 10.578062954826192 13.879278595267504
Bi 14.498492871855909 9.16943065376742 9.574065699528981
Bi 10.374937934318233 10.262614289664786 11.300155926808614
Bi 12.969487524100675 7.046241304174713 12.586424080096277
Bi 14.210445899645778 11.71612971325703 7.898419366396903
Bi 18.240028768036932 13.768495166817218 14.199813644011375
Bi 11.677213847401594 6.759350907062846 15.384434209976433
Bi 19.186401313259775 10.3362191857992 16.83429543147829
Bi 16.972489942031903 10.130795473593132 13.027903520266358
Bi 13.6463823150434 6.9337830630390815 17.810922337341637
Bi 15.131794243639616 12.961796633363353 10.527652462227541
Bi 11.216212118536745 12.021305015336463 8.328396844882645
Bi 15.228776336957763 8.25057710036202 15.553538397117157
Bi 16.002669654262487 10.92307349289117 16.857269891333935
Bi 13.317955935410573 10.098981491787233 12.285509420156693
Bi 9.980957412607015 7.283013414507468 11.974412643346614
Bi 9.086818868443581 9.45928156786921 13.953969782676666
Bi 11.179970735120003 14.27094834984386 6.265530949304749
Bi 16.961035185114817 15.184210943645574 9.543555661744584
Bi 12.476314212143762 15.95011493613928 8.55881543023851
Bi 11.279413493711818 13.949994188124577 10.800096785704577
Bi 11.839517181221709 9.288273988831179 18.538293579732763
Bi 11.743193642498213 9.764408649153356 15.487222971108283
Bi 8.360763532365869 13.944737586973792 9.9323530923518
Bi 13.823851766486433 11.48184577271853 19.10144103217911
Bi 18.244738028952767 15.912230465364745 16.398833180242637
Bi 15.195121932917964 17.657478523408635 8.883323266662115
Bi 14.905650633024369 16.328282051412963 13.073588344266671
Bi 10.44236728137485 18.148053963444237 8.296344380383388
Bi 11.111066182559162 16.93923759705278 12.59498224391204
Bi 8.76202316607186 15.615716094325679 7.424583546958524
Bi 15.497313132591875 14.799506330922343 17.237641399478235
Bi 10.336072212467254 13.188488883414875 14.13998487706376
Bi 15.290771353129728 13.013705600936357 14.716594624201122
Bi 17.830433973862696 16.144954912433814 12.30097534506098
Bi 11.768963444318727 13.627427614591326 18.226353734819778
Bi 12.931149541744677 19.772711437750893 9.64905634339357
Bi 12.290916612672524 15.120580681754932 15.507674847400649
Bi 9.369594950497854 12.262777571431343 16.966157388001598
Bi 6.9903868383377565 16.21224264226993 11.35695860983499
Bi 15.713732287588215 17.486104588775152 15.787257232654834
Bi 12.359311514605865 19.74618182511484 12.54756656858985
Bi 8.948856000722056 18.45932388297541 11.038277339938425
Bi 15.306766657325484 19.05443626267917 11.771262976762927
Bi 10.44093396402308 16.92613088531776 17.11867616511895
Bi 7.732837991129992 14.860337253676388 14.286094919925224
Bi 8.171239356128266 14.979764965889691 17.574713113885878
Bi 8.867149399345845 17.653271484699186 14.556790135620217
