51
Energy = -185.93472801 eV
Bi 13.04723262678032 7.1856421863753726 10.107849783840997
Bi 16.715318216358984 6.927216272801893 11.678581185929202
Bi 14.245750810219098 8.161625114272233 12.979149735796515
Bi 15.284333358332812 8.138184629407649 16.02385632925107
Bi 9.423611795349 9.349322083834846 11.58482622783011
Bi 15.471584837726114 8.850491474815989 9.672194526078504
Bi 11.036907568411545 12.163806853735668 5.611260560427129
Bi 18.164652253093443 10.938802411741609 11.029754614271372
Bi 9.844327313204486 9.908853556025761 7.348026694627561
Bi 13.449085279289164 10.456666005954443 16.749483862045672
Bi 18.82616468510285 8.708072165293542 12.987513645521327
Bi 16.61610631149524 13.379063221372084 8.678542852611864
Bi 11.759458565953574 9.94841860454977 9.758699028777851
Bi 10.928785216078468 9.830161982256174 14.226961051809495
Bi 15.081128275246874 11.084138911360917 12.180631547065762
Bi 16.8745271756705 10.346451741956434 14.733836367826937
Bi 12.686350023985893 13.2248452738348 7.932846252006465
Bi 8.59861111929091 12.26583576963128 11.52398539314731
Bi 15.045136943269275 14.599173944754659 11.070690504346853
Bi 8.684078407470121 11.471661777853312 15.504696671411361
Bi 9.8404642857269 14.293177616630588 7.492104357726153
Bi 19.395121009399332 13.211073505979503 12.468388161668178
Bi 17.100330677591696 14.270263878667896 14.407102503987868
Bi 11.80921254202702 10.35720184909008 19.64156883462313
Bi 12.564942889847142 12.432195088163938 13.946360278470994
Bi 8.011092573548455 12.063324069224137 8.501726650528136
Bi 14.87811924004213 10.788521250352836 19.690342587905068
Bi 15.538893245095295 12.756006735178342 17.285779655766092
Bi 11.480624542462147 13.203214567766064 11.149618589820303
Bi 16.192865844119243 16.043192184792286 7.217349613466055
Bi 18.095513757517733 15.432215926114122 17.06201452442641
Bi 9.5084701716889 14.31387568125373 14.740514169403244
Bi 10.756571033354167 12.623505934703573 17.68575115274939
Bi 14.31317442720321 17.116699561990817 9.430559902624529
Bi 18.02385792680303 15.23165331577883 10.63223922962927
Bi 18.77044789492583 16.790620051828736 14.390328726749058
Bi 13.19046368898732 16.006393044279115 6.813919419594996
Bi 8.962914461616696 14.565942362043318 19.312370903543272
Bi 14.056392563198745 15.471156368522541 14.594295749932751
Bi 8.02929104104461 15.944020366329733 12.553114336798325
Bi 13.014404915801322 12.9513656577107 20.761911901537403
Bi 10.50514922240992 16.132080718124396 10.772061292792875
Bi 13.281948844688166 14.6155844998767 18.17060230710357
Bi 7.404310437999078 15.278661923353926 16.800735915230934
Bi 11.438642849373181 17.03205212832878 15.839033573361718
Bi 10.151562390653977 18.023781684946815 13.179752731981715
Bi 15.38329118101718 17.176866007430778 16.85897549724504
Bi 9.255957426328733 17.2950976685302 18.064535929980227
Bi 14.08142482844443 18.300191569615613 13.208360979528385
Bi 16.646619174893186 18.98293790940212 14.771966036284205
Bi 13.136086288695635 19.55894389796549 15.808029003132317
