53
Energy = -192.47673837 eV
Bi 20.322673694819088 12.021104136986219 10.612166535755312
Bi 19.72196706900483 17.629046403127205 11.560746154522661
Bi 19.780367377374745 12.91229672330685 13.558795151094802
Bi 18.7604926996535 9.548807455646907 11.27900879876762
Bi 18.26666498326064 14.030775409140139 16.47587481378087
Bi 19.61098849257128 15.922963892286734 14.193311351695602
Bi 17.59855088988058 16.31841569769184 9.829683783786244
Bi 17.295712287209533 10.999845946832046 13.8650159900217
Bi 16.784016564731257 14.427998542988146 12.125145175543011
Bi 17.79063805212803 13.235002163995974 9.474450603387401
Bi 17.641319364199592 19.54460169616913 12.686257294245154
Bi 16.121159935718143 8.205542800567704 15.63508551899058
Bi 14.935281240484573 7.5048704378460185 11.25820811149611
Bi 16.22779156043924 11.409120247100633 17.85409480535625
Bi 15.863877448606404 10.50538393795581 11.123220246264065
Bi 15.533150126036478 13.253913704085582 15.501045138955911
Bi 15.843528182610678 15.64728650846796 18.02274043218558
Bi 15.508163055195796 13.411504185943766 20.0771451493253
Bi 13.230641581862818 10.77060712306528 8.558534818980885
Bi 13.812385109708936 6.981127257301057 14.039582019890858
Bi 16.85002268416536 17.425449047374684 14.78802459981911
Bi 15.250696617155432 17.70464375333217 12.1491608350671
Bi 14.0604257736396 9.180290169153455 17.684153590049487
Bi 14.515717893731463 14.986886327708925 7.730563506974767
Bi 13.768463006067561 9.956606540527993 14.761826592009463
Bi 14.170680130711743 13.720971983574376 10.504296703225789
Bi 14.6402903351599 18.018162712284923 19.667097262799466
Bi 12.489915272933297 13.399972140007911 20.051723491020425
Bi 11.881724309457852 7.961513579994881 11.169169786770293
Bi 10.925463648954924 8.741312042328664 8.33693804699788
Bi 12.936232060149568 15.9892264509272 16.36171128007764
Bi 12.115508683806809 11.011767215241498 11.407370579240716
Bi 14.29117711068404 18.729126647610222 16.641067180919276
Bi 12.206085661576758 16.414654630414137 20.545666500242337
Bi 11.873947893977775 12.543844969793605 17.170034162577025
Bi 9.64931668099674 10.550009115033443 14.364142466975997
Bi 11.971015840166865 15.543641717119112 9.283069948817833
Bi 12.418817214552037 15.761815142611256 13.09966623578183
Bi 13.185567308865894 20.032680585933456 12.688830444556793
Bi 9.304562261343138 11.81991788247644 18.66864958616147
Bi 12.057872917352976 13.270045262586065 7.164946808453674
Bi 7.670266690415165 10.115079102424247 12.09021681858303
Bi 9.520023856592458 11.074288539177939 9.816233870839078
Bi 9.34657609525198 14.352612745318389 16.98747299724379
Bi 10.070294021176613 13.61826561672778 13.16149225593137
Bi 10.57852131658519 17.01078056949868 18.062866450873234
Bi 10.178044063527892 17.559753558158327 14.731188686748368
Bi 11.80883598471427 20.064304478128587 15.398548555903165
Bi 7.587394986262907 11.489223960213133 16.175320727611705
Bi 10.989385575074154 18.08444910490164 11.78352558107968
Bi 8.626842833646545 14.555530333496723 10.633284472960913
Bi 6.286882394756379 12.80229253811168 11.619174437757424
Bi 7.362048713582359 14.963317673030673 13.430777374225263
