5
Energy = -17.04016415 eV
Bi 11.512609685063085 9.751167059512811 8.610117739803574
Bi 10.743334560645966 9.888708590435101 11.491056198158951
Bi 9.588436622015978 7.6657653650179745 9.747581203405689
Bi 9.239199998649358 11.612331400253401 9.466865578811737
Bi 7.237928141967497 9.403516871986096 8.992250011077505
