52
Energy = -189.46057304 eV
Bi 11.44932729934838 12.049578634715228 18.421527034116565
Bi 15.347517942140012 11.388141007538179 18.257356484228442
Bi 11.230448875527655 13.910649453781115 20.87912808006982
Bi 8.802787338509075 12.839650162507919 17.007621336518547
Bi 18.14030048530193 10.18813642191683 18.39265698594488
Bi 11.719505368206807 8.961626541009823 17.640458977523725
Bi 10.127060391735329 15.436618521230924 18.562354766475337
Bi 9.169880225064153 9.682349566889442 16.29738142572958
Bi 16.17768293854526 16.942558892440502 17.92212566022122
Bi 17.75597309451026 13.196710590652657 18.55945664501161
Bi 13.056932041489627 14.727732459893957 18.566349181414633
Bi 7.324070621116963 15.138395557131144 14.151110264868864
Bi 6.102601275819859 12.523170605577775 13.040288425251001
Bi 14.914705809935981 8.19438530697759 15.782371135268662
Bi 11.872124197263767 18.06841198528865 16.32702195178836
Bi 15.285450020783601 11.184176042628081 15.135501900076822
Bi 18.244093616770193 10.266633109478263 15.253596293582412
Bi 12.619731164036624 7.523676575005638 13.864244080033837
Bi 10.041337316524292 13.704483088530209 14.344113566743967
Bi 11.825785608887605 10.29833996717399 14.859184165772849
Bi 9.52049742479226 18.09000688238918 14.369254626151838
Bi 8.897614256679205 11.284122082440925 12.842037365688984
Bi 19.102515584101557 16.600318207040644 16.955715871000404
Bi 15.29020109299873 15.081787978627107 15.640131942530562
Bi 7.238654942867394 15.79089817162424 11.177299600217031
Bi 17.409263635560624 7.506760706870685 14.135018146708605
Bi 18.18404948795963 13.997900876867986 15.603428063643277
Bi 19.84313528439272 11.544002129999157 12.578314822565362
Bi 16.32901487027023 9.496273486279778 12.137851842986587
Bi 7.688776675114096 12.808066039979344 10.41229063520732
Bi 13.890810199472538 7.892774542945585 11.127836882549591
Bi 12.14615904619492 16.7283026851094 13.604714860701792
Bi 12.502798538760093 10.420850182612881 10.124260221818835
Bi 10.813316882394894 14.196779770208623 10.869784971906109
Bi 18.919700103940006 9.590170750250646 10.465631355750865
Bi 19.23220781979424 16.208041166953485 12.637432606656139
Bi 9.459252344400365 16.2521606992899 7.622600153761889
Bi 15.55665567027466 18.071247127886082 15.106747489479355
Bi 13.268191344969242 12.50608188309013 12.220837834895967
Bi 16.54253135625212 14.86005328550025 12.141783585318468
Bi 9.808589261447143 17.228116166666002 10.50638897143968
Bi 18.51641436530051 12.59779489662043 10.170754787607656
Bi 11.990214388422782 19.751362929404703 13.789803380247804
Bi 18.546811878050487 18.444269778020196 14.574851153979147
Bi 15.212534629714499 11.982254514853173 9.91030384024435
Bi 10.467146356368849 13.306526160369291 7.955760703916885
Bi 13.404143928035902 15.957680845720741 9.666564435190992
Bi 12.33077043097695 17.14876613413377 7.035993561162721
Bi 17.770175871065256 16.555153956138927 9.926329861560951
Bi 12.822489290318646 14.26588517516021 6.206740609401807
Bi 15.342655592827988 17.61549079629894 11.425314818501823
Bi 15.344967391885591 14.389144966811143 7.962591585084769
