52
Energy = -189.87348647 eV
Bi 19.004125537913154 16.42454862882551 10.945837638702685
Bi 17.899358471539305 18.251173094948605 14.782566907118971
Bi 17.76535023148152 15.147403776848233 8.48755385586522
Bi 18.506484495837814 14.127578015255107 14.718644187349717
Bi 15.845871041617462 20.39587734155912 13.96490700867106
Bi 15.752261302365609 19.11670689371401 11.217059690197033
Bi 19.10759968779289 13.396014866032818 10.579470367594043
Bi 12.763928843074646 19.323055449663887 11.600652235809052
Bi 13.73436519009951 16.66672889543473 7.523025131183315
Bi 15.897454187205616 17.649342721874437 17.000771080176317
Bi 14.982028985017617 14.825139261925266 9.7200495144609
Bi 16.49943468339613 16.47308189720608 12.704256307761536
Bi 16.809267548480133 9.066664327712672 10.081105412939184
Bi 18.792918367597267 11.45007224521551 16.20407678215299
Bi 15.924524061166117 14.652087372666777 16.363291735167216
Bi 13.541984430059474 18.79225441032867 15.398795773005016
Bi 18.862992108362352 10.387687681059663 13.339531843007398
Bi 11.82129067010431 18.61805598557392 8.81783341599106
Bi 12.90651939709282 16.67659432540398 13.220522090197566
Bi 14.267381687003308 12.380160585622674 8.026597908345078
Bi 16.8771455372044 12.627975567653294 12.555847353660134
Bi 9.947344060876079 17.550880357141683 13.637291813750545
Bi 11.7142464717891 13.60090256404619 9.243280916020097
Bi 12.066385568357614 15.925148190720199 16.656363066486616
Bi 15.733527937514811 14.212488934510377 19.392996722889574
Bi 11.056934409447436 15.256558670959462 6.834149230496161
Bi 8.432453246128064 15.440501283257566 15.207572669008218
Bi 9.68552829844964 17.823109527944773 16.661027193524536
Bi 9.149386860395412 11.934627031472589 9.518056915904905
Bi 17.216160358164604 7.851636051939529 12.82400586793627
Bi 13.008276406552291 15.557902205527764 19.57589251154184
Bi 13.661758594448079 12.632295076166978 15.524246026040933
Bi 15.861217540896355 10.582428368066834 16.45196595778917
Bi 9.324538986586745 16.80264413730249 8.84125711216606
Bi 14.534209578524498 8.867007068524117 13.845146245051339
Bi 15.175466775638107 11.220031749858773 19.419836837617574
Bi 13.198439228862735 13.35608816025704 12.676573454355099
Bi 14.169807257911083 10.598490448134884 10.51288397530832
Bi 14.210456252961787 7.725662706106888 9.329654054778162
Bi 10.343529337751592 13.09677597170551 16.031088324014203
Bi 12.163562970754368 10.82435395768116 19.541497311170765
Bi 8.14568515544132 14.559617535098585 10.60738956991287
Bi 10.811424024822195 13.522346266441355 19.1142935136557
Bi 12.616225039477527 9.381204571988564 16.814753686574793
Bi 13.563404015876058 5.9761582450437425 14.254929447427518
Bi 10.729414204549286 9.63753234913799 14.368464292285035
Bi 12.507465553571391 7.5716681151965535 11.886297832540405
Bi 7.443893844923905 12.132898556747651 16.63528148092483
Bi 9.872490760013688 12.746089895522806 12.420360324693327
Bi 7.840508002196536 9.423447467832439 15.327795574089313
Bi 11.079384498073521 6.908721681381576 15.764206666242961
Bi 7.045559938231157 11.865260249333812 13.674785570004794
