55
Energy = -193.15385179 eV
Bi 11.33317500662887 11.33317500662887 11.33317500662887
Bi 11.33317500662887 13.000614646171355 14.344299364231574
Bi 11.33317500662887 13.000614646171355 8.322050649026169
Bi 11.33317500662887 9.665735367086386 14.344299364231574
Bi 11.33317500662887 9.665735367086386 8.322050649026169
Bi 13.000614646171355 14.344299364231574 11.33317500662887
Bi 9.665735367086386 14.344299364231574 11.33317500662887
Bi 13.000614646171355 8.322050649026169 11.33317500662887
Bi 9.665735367086386 8.322050649026169 11.33317500662887
Bi 14.344299364231574 11.33317500662887 13.000614646171355
Bi 14.344299364231574 11.33317500662887 9.665735367086386
Bi 8.322050649026169 11.33317500662887 13.000614646171355
Bi 8.322050649026169 11.33317500662887 9.665735367086386
Bi 5.245469435040765 11.33317500662887 7.923074155945174
Bi 11.33317500662887 14.743275857312568 17.420880578216977
Bi 11.33317500662887 14.743275857312568 5.245469435040765
Bi 11.33317500662887 7.923074155945174 17.420880578216977
Bi 11.33317500662887 7.923074155945174 5.245469435040765
Bi 14.743275857312568 17.420880578216977 11.33317500662887
Bi 7.923074155945174 17.420880578216977 11.33317500662887
Bi 14.743275857312568 5.245469435040765 11.33317500662887
Bi 7.923074155945174 5.245469435040765 11.33317500662887
Bi 17.420880578216977 11.33317500662887 14.743275857312568
Bi 17.420880578216977 11.33317500662887 7.923074155945174
Bi 5.245469435040765 11.33317500662887 14.743275857312568
Bi 11.33317500662887 17.35482546570773 11.33317500662887
Bi 11.33317500662887 5.3115245475496895 11.33317500662887
Bi 5.3115245475496895 11.33317500662887 11.33317500662887
Bi 17.35482546570773 11.33317500662887 11.33317500662887
Bi 11.33317500662887 11.33317500662887 5.3115245475496895
Bi 11.33317500662887 11.33317500662887 17.35482546570773
Bi 13.353305993540252 6.531527100752557 13.812047017251581
Bi 9.31304401971749 6.531527100752557 13.812047017251581
Bi 13.353305993540252 6.531527100752557 8.854302996006162
Bi 9.31304401971749 6.531527100752557 8.854302996006162
Bi 16.134822912505186 8.854302996006162 9.31304401971749
Bi 16.134822912505186 8.854302996006162 13.353305993540252
Bi 6.531527100752557 8.854302996006162 9.31304401971749
Bi 6.531527100752557 8.854302996006162 13.353305993540252
Bi 13.353305993540252 16.134822912505186 8.854302996006162
Bi 13.353305993540252 16.134822912505186 13.812047017251581
Bi 9.31304401971749 16.134822912505186 8.854302996006162
Bi 9.31304401971749 16.134822912505186 13.812047017251581
Bi 8.854302996006162 13.353305993540252 6.531527100752557
Bi 13.812047017251581 13.353305993540252 6.531527100752557
Bi 8.854302996006162 9.31304401971749 6.531527100752557
Bi 13.812047017251581 9.31304401971749 6.531527100752557
Bi 6.531527100752557 13.812047017251581 13.353305993540252
Bi 6.531527100752557 13.812047017251581 9.31304401971749
Bi 8.854302996006162 9.31304401971749 16.134822912505186
Bi 13.812047017251581 9.31304401971749 16.134822912505186
Bi 13.812047017251581 13.353305993540252 16.134822912505186
Bi 8.854302996006162 13.353305993540252 16.134822912505186
Bi 16.134822912505186 13.812047017251581 9.31304401971749
Bi 16.134822912505186 13.812047017251581 13.353305993540252
