54
Energy = -195.85702245 eV
Bi 9.379055444894302 20.002056210125097 14.667866703760136
Bi 15.783295554429262 11.15731927811364 15.335848903517315
Bi 20.015011466164367 13.307053851980209 19.600306693305065
Bi 12.947000775121161 11.090112489911677 14.12831419592623
Bi 13.167013471745438 16.60630232828203 21.003652307562113
Bi 9.583429790435481 11.52580960503061 20.450464946078846
Bi 19.606445730128403 18.537528633611004 16.441356143966182
Bi 18.205054980825256 16.87366429780356 13.33523827786727
Bi 11.761849925620375 13.87790745457477 13.80956907138213
Bi 19.811414481712053 21.599887298935823 16.427597229751576
Bi 13.31357631798548 21.574699121266207 16.551460704870895
Bi 11.233808477476662 13.060864626082479 10.908088458200643
Bi 10.304046617020429 18.07275789513182 16.92731239672606
Bi 18.025052903841335 19.500272328048936 11.686245774601643
Bi 15.496415501338614 13.679186261103554 12.503931626740432
Bi 12.32829994970867 17.553802803813422 14.691699718667529
Bi 20.659734929265472 14.933956679792153 16.953333990831542
Bi 8.031630968944235 13.733639873510324 16.781695723795753
Bi 9.707916064347081 17.415585527735715 13.048812739750533
Bi 7.5978418778092935 15.519993370355309 14.295888998333467
Bi 17.015803013529986 15.703929473898919 10.778382908647876
Bi 22.319847930950743 19.05928906079355 17.676345389606254
Bi 12.84118318312052 15.17357544376208 9.445081165490638
Bi 10.722713249659504 15.189378114259071 20.449880690499516
Bi 12.48981022677152 19.39179480578881 18.60554542355758
Bi 16.87487179153314 13.931329245370142 16.080927019956896
Bi 14.052401794059824 15.049446713497982 16.587351516088546
Bi 17.33814626591236 22.508254716738833 14.901173825980733
Bi 20.77219196834494 19.14185351404668 10.399595378878251
Bi 14.08134069551559 12.464670929594327 10.042799363136742
Bi 20.89145283305885 16.35092367570561 11.96698232881816
Bi 14.283472897437452 16.440867950422483 11.837064703580182
Bi 8.877659830635249 12.786326373573434 14.024183864159928
Bi 22.64975267031945 15.299419557698009 14.315089847959303
Bi 24.266411502157656 17.498869337041036 15.640163157121982
Bi 21.59447865171815 18.65589589952178 14.08232373024872
Bi 23.122852491200216 16.21778581973249 18.20514490898832
Bi 17.42564018614281 12.314166788187626 18.640173259561383
Bi 14.743324727099417 17.344256672048115 18.51640441292604
Bi 20.31216799168518 9.44749603058994 13.783158404258213
Bi 19.38995510371516 10.931690023651068 16.44426866089302
Bi 19.264981876631925 12.283732329397512 13.686339422348174
Bi 15.986317606426757 20.16066803032366 16.277249610024434
Bi 20.37341968200713 21.175966735710936 12.549041543627698
Bi 12.281420488798844 20.521604823320118 13.896133930190551
Bi 22.234750431231255 11.69206564600748 14.068874794383715
Bi 13.334919099417222 10.564554391648352 17.108033452662205
Bi 8.962279977763824 10.261630800527794 17.786752618065897
Bi 11.025091787315738 9.016521846896753 19.613659918248935
Bi 8.092810598796097 8.883129140747855 20.33909347791447
Bi 17.250143505640526 22.37242903108212 17.909669746054913
Bi 13.094603217414498 13.119162163955751 18.797928293936994
Bi 10.76586448196708 14.881011376829836 17.463908013850343
Bi 22.044570416866794 12.26460872807173 17.28349101504624
