51
Energy = -186.14412109 eV
Bi 18.894883860153108 14.217334043073416 7.707845710779871
Bi 16.8336671330211 16.46946256235422 7.548448741749028
Bi 16.627952691084175 14.023094107460414 5.705597691108967
Bi 16.413606345539982 19.031793818959578 10.966685220077823
Bi 17.477134770966728 16.158048179103098 11.70508104925715
Bi 17.441825381317113 12.784404287520895 9.979284759448843
Bi 19.76294845714204 12.52835649146595 11.958277847347677
Bi 12.130375454032023 15.37286513107235 8.122338316039377
Bi 16.01213404971758 10.409399831028175 8.51130378680324
Bi 15.147608003525734 15.27850174059421 9.784122458735563
Bi 17.890837530705802 9.974356183703582 13.154666531937819
Bi 13.707360731352376 18.20473438007298 9.93662036620732
Bi 14.494538983632035 12.743861734662913 7.465915243342487
Bi 18.761278502821767 14.279016771887637 16.15507931726671
Bi 16.87654252321697 16.788864071972352 15.58219312150791
Bi 17.295062327572538 13.012493257138626 13.649217260801318
Bi 19.196796121001093 11.004805034049946 15.64970345087507
Bi 14.1014212404361 18.54556787730728 12.891788392155679
Bi 14.376574504279827 10.890251353196517 11.04968119307373
Bi 11.272344967268904 14.059438467812646 10.84088325312916
Bi 13.71027601464012 8.14067744862496 12.251289815724599
Bi 11.414169762489998 10.978990457701842 10.12105293027635
Bi 10.693177271782869 12.652533980040436 7.602579379444663
Bi 9.779688598166087 16.92724966784015 9.27347651186862
Bi 15.006545646455491 15.645219028938346 13.529169683755033
Bi 8.589799772981745 14.082197857115771 9.441875138922134
Bi 7.822864125166694 11.030706617627173 11.083343263427356
Bi 17.309732609388593 13.21152001959411 18.648880476996823
Bi 14.58247924671186 13.913027949594277 17.517532261997243
Bi 9.07349771905135 12.622682266608992 13.361969861593222
Bi 11.70182961912391 15.320897944965983 14.808770487767116
Bi 10.237439999138811 16.993280516898952 12.432411278061947
Bi 9.294850080239456 8.59710581516493 12.212806553823315
Bi 14.787589410661788 10.785972901560651 15.793033265534099
Bi 17.082509695704754 10.285403333688388 17.719144494143883
Bi 15.71239800534663 8.172773935246934 14.560248295360154
Bi 12.348465956187145 17.34828744933689 17.029323083389382
Bi 7.732561481054465 15.374736528262108 13.158575838111718
Bi 15.16052075203756 16.789345273068662 18.12850154887359
Bi 5.425407158822895 10.306535762594022 12.954968768066173
Bi 11.65044995309232 10.026340796462542 13.565537376607287
Bi 7.310985232641178 8.552869862376122 14.575838765140475
Bi 11.05944717197512 12.285119000837772 16.6178519665138
Bi 13.176087420407729 13.668046316223935 20.172185868422176
Bi 8.986824666106699 16.254320377161115 15.829459060102689
Bi 13.206388345898612 9.120095348581657 17.819610294044114
Bi 6.975088187157921 11.488030957892468 15.288249828908725
Bi 11.009440737387106 15.66749603045515 19.289872904476255
Bi 10.535212639499964 9.211272054941007 16.31360282231056
Bi 11.557835610517536 11.201583489566758 19.382120408983315
Bi 8.853346648529412 13.970905684195124 17.858834108562046
