55
Energy = -201.01058789 eV
Bi 15.151592959181137 7.843259312053918 7.752672381410542
Bi 16.196602985803025 14.088215355189895 14.021578394845935
Bi 10.014084861945328 11.138008106489666 15.112532693425356
Bi 6.995906019365408 13.84014874767964 17.689452181509864
Bi 7.9976713528484105 9.429216581219261 18.02659001994319
Bi 16.49829818483868 10.188162661959714 6.3271221308454715
Bi 17.727330337859733 11.571986578323905 13.11028677187132
Bi 13.329243314000843 12.068554155945336 16.93252606923028
Bi 13.467430276477216 16.03302194904569 15.73301285476713
Bi 10.384310111255063 8.886552018057095 7.972846331735392
Bi 14.29785637745642 16.663132029736936 8.435384816564353
Bi 10.418320048579854 16.392921160718704 13.444344543010844
Bi 11.64547702619518 15.291384902929751 7.700712582083242
Bi 10.82650634867263 4.878800465105214 13.43618114106468
Bi 6.993131606685086 9.455713637106937 9.99982742084027
Bi 15.258025342471251 10.255731955134106 15.343821169869488
Bi 6.015790250419578 13.692944873788106 9.316282311633255
Bi 9.533395972215507 8.955638620204091 11.63791618487197
Bi 11.710071690961763 12.751348729256518 9.53075695735042
Bi 12.391705162805494 6.834823517585988 6.7324280780846335
Bi 19.240598817475792 12.845691370471046 8.866973931563395
Bi 7.329867894360978 7.867745293237284 13.486475397717777
Bi 15.580741572402184 14.186819126443517 17.056717601561502
Bi 14.820683432686874 17.484314559323423 13.36171099032103
Bi 7.837466500191723 17.641112338901163 12.39584294969133
Bi 7.024961638064875 10.33770290976698 15.244439662255246
Bi 13.010031221136494 9.22674986164224 9.530558168135972
Bi 12.647662849880724 6.170061344141049 9.744638618597905
Bi 8.395161404189585 15.513072582140492 10.225830501378065
Bi 7.312644331143002 11.447579860333207 7.647701871346142
Bi 10.250537357659313 11.794631042337262 6.987844912921907
Bi 13.808482228059717 10.305461152933068 12.604722534161093
Bi 9.516327923662816 12.10557450150802 18.020346559184002
Bi 9.7435029498075 6.029045061622432 10.796288601703568
Bi 6.022878045032903 16.572459757841514 14.658944245522443
Bi 9.012144199789455 6.321774409050274 15.45946542222238
Bi 13.124765958410778 13.407691980560202 14.149577594170111
Bi 15.114417695132875 7.4911761912492 12.46182700595282
Bi 19.762618939408302 13.496941801282476 11.784510941924392
Bi 10.681974516855718 8.595711886022542 16.745000111900712
Bi 15.807842678242682 12.030917270140447 10.753097447818034
Bi 14.9814699771692 7.179208988028689 15.481480104840312
Bi 13.752149768410545 15.521557209846808 11.200311212277832
Bi 11.412876220543822 17.481923170053282 10.703426617133086
Bi 12.1309913726967 18.96739834596322 13.284953384851224
Bi 8.458479746085446 16.221523659605733 16.440763524738518
Bi 7.463871238317116 13.915442322735583 14.690747654328428
Bi 12.378804452777576 7.454684444742176 13.893038502806311
Bi 17.73389344280938 10.17896345044849 9.13896691929083
Bi 13.287620068403667 13.993778725506916 5.412375007316741
Bi 6.778508848778824 11.972929774584122 11.705303138762442
Bi 15.955499528295523 14.611767412152972 6.877583418388873
Bi 14.418269039582048 12.070182129473336 7.490532519111115
Bi 9.66648697460956 13.211306839534164 11.815686380280981
Bi 17.421901040170695 14.826417971128533 10.364925613147504
