50
Energy = -181.73415048 eV
Bi 14.221397190068732 13.52144420778598 6.179582807234944
Bi 15.721399527010176 9.683697209832197 10.377027248134832
Bi 16.004935764605555 12.94632833910401 8.590203130596143
Bi 16.369524246958015 9.36496849055435 13.334825407934431
Bi 17.67633053989606 13.129407752762573 11.733496226506842
Bi 16.558686242014108 15.953021832465396 8.9700889843929
Bi 12.618465200649938 11.037642727028476 7.058076574675562
Bi 20.018354799041564 15.150978483298475 11.498173396806132
Bi 20.879635348700567 14.51784529131318 14.391249859556552
Bi 13.680240758940569 14.950719400395878 8.823265772854427
Bi 19.30056216945849 11.950842462035023 14.057082463823807
Bi 14.129124349500248 7.730548535673002 11.988947951344898
Bi 11.19866618063607 9.055111769104728 11.046409872904695
Bi 14.60294353719038 8.807950962390784 16.449142929796444
Bi 13.059265232652486 11.301901066668053 10.098081312087553
Bi 10.161364381775162 12.714106320011828 7.733782712117175
Bi 16.04911613858458 15.779354510865291 12.002918896225738
Bi 14.403080071481305 18.809929573490187 10.801765833136733
Bi 15.04941674880296 11.51918872573956 15.092134902557609
Bi 18.42154869411397 17.64096957983067 12.452240761740258
Bi 19.016756740625066 16.806354234344255 15.339182973436202
Bi 8.96684572575205 11.152266332848594 10.042064662053688
Bi 16.387412251832597 15.476395440723943 16.0553092599555
Bi 17.97653258923835 13.917041459759053 18.106927108683134
Bi 11.820046817118442 17.172530650073632 10.909931475797904
Bi 11.906003137666966 20.091909533361733 11.805132521670368
Bi 10.649631243895842 13.488308435793208 10.727355950712845
Bi 13.555793858635656 17.288087303641777 15.398106272953457
Bi 17.70392053045893 11.276460231979174 16.602398907927945
Bi 15.216716789565684 19.39327272276309 13.880722893276367
Bi 11.615296717137555 10.841437625160037 13.456273794966664
Bi 17.157473835385883 20.085660420913236 16.38731394926455
Bi 9.734541203069387 16.16116822948691 14.027902230339187
Bi 12.022909991361994 8.188700319642933 14.92197728172414
Bi 16.566968126396304 17.6853620027973 18.19524715635941
Bi 12.693246224650341 15.31303552317832 13.191167279073069
Bi 8.769541898694913 11.11810733743238 14.50485065622183
Bi 14.520546746811048 19.910410529150617 17.65039002888392
Bi 7.78283532358487 13.887919882821004 13.521526367955069
Bi 12.377466481523339 20.035387914847817 14.910723043584172
Bi 12.305748545001332 13.478555249144224 16.135133118391337
Bi 15.725702366491028 13.617193617932598 20.160608830519124
Bi 12.875320488224625 9.201516976191645 18.98321375275179
Bi 8.085257891647995 15.146832007049369 16.286718130527333
Bi 13.886525134374683 16.04762230906789 20.035716645006445
Bi 10.365745264439326 9.162644730841263 17.3578054120745
Bi 9.658060081799539 12.36000063459285 17.126402492578855
Bi 11.490345617875153 15.744052536795962 18.04878514390618
Bi 13.32558096085332 12.22444237355585 18.839425443997175
Bi 11.612732425241113 14.056928325193608 20.608752302412597
