51
Energy = -186.37598735 eV
Bi 10.076470451657576 11.03109410503619 16.264862706880695
Bi 8.080076759059395 9.30433416346416 14.650816331155909
Bi 8.017004645252369 13.247386580814876 16.67281131515144
Bi 10.985008059755323 13.274651309499966 18.88142247744272
Bi 12.733662133666929 8.492807730781603 14.842591769507878
Bi 13.493019322189662 11.03259839664278 18.65528507110746
Bi 6.253650467596638 11.243823323724783 13.142088937658084
Bi 13.135557795125768 14.49007306169523 20.80984281617467
Bi 15.069899032182226 9.310926097775841 16.67284853074303
Bi 11.875017574406682 11.224945289222486 13.73951134239135
Bi 9.737792691172107 15.70649972455475 17.431329295898244
Bi 10.054573453394546 9.204536394733317 12.28544380572745
Bi 13.370687840365377 15.970993884642034 18.165150454441715
Bi 8.289059052028776 11.236078550524475 10.765725063349853
Bi 7.1938407591055755 14.056970852690881 13.87256733438491
Bi 13.402056570488007 13.294597820161103 16.544527985986214
Bi 18.46260785733005 10.536630017986443 15.501562838450917
Bi 15.252679562318736 7.910912316404769 10.35726521329354
Bi 15.450149017300937 8.19017929269339 13.379620564432068
Bi 15.52795869131895 12.637380680193496 20.233485060657912
Bi 15.742210135423266 11.098146355978905 14.249089813069087
Bi 7.636239888583189 15.005416347401521 10.347546716441807
Bi 11.073810478802645 15.700500822338283 14.661598256500756
Bi 16.374169510481305 16.50048678775887 18.153115596666577
Bi 10.750146803905977 11.888136259450373 8.205085987248083
Bi 19.732639756603493 8.618877513037386 13.404178826537093
Bi 16.471688892794834 13.566908667551079 17.442999188139108
Bi 12.911083686056935 12.381490324418808 10.373755225527358
Bi 17.911737983999014 11.185566331604043 11.218676356627896
Bi 9.666652338143065 13.628108007965396 12.080365258627852
Bi 14.561551244136467 10.38762227713874 8.649967874041115
Bi 9.16763002503322 14.489486022935791 7.771604088173852
Bi 15.648257627515672 15.091399471433997 13.780858615208832
Bi 12.685038578070372 18.270821918261596 15.083848354286905
Bi 18.283546541865533 8.289823056714663 10.640101306188187
Bi 7.736846911369598 17.885408485280937 11.404863901154428
Bi 8.700501100005361 17.682612949547465 14.288965191686712
Bi 18.741683396586804 15.225531126087889 14.062809975274446
Bi 20.41036766009004 12.703751299670277 14.583516545601277
Bi 12.53458023684531 15.91427055525776 10.94852527841142
Bi 15.737277995534754 17.670313018232367 15.391388112847274
Bi 13.206432797039914 13.71470991876501 7.618723191125436
Bi 20.859497556811206 11.117325453807332 12.007142788670297
Bi 17.17736662848349 11.976341398601695 8.358920466604348
Bi 18.82083522657902 15.61727552797154 11.038044390802597
Bi 16.227558130140455 14.0847341336283 10.356063533645838
Bi 11.580828172696968 16.29914089577665 8.081148226592779
Bi 9.983760673651021 19.679126857372232 12.34855258567257
Bi 12.877494214599308 18.759163630153576 12.066639830082638
Bi 16.48117926185989 17.447800694684997 11.917351654637343
Bi 15.020622941984403 16.667278284485036 9.310051599839753
