50
Energy = -182.84440114 eV
Bi 18.085515492997008 7.2151393085595386 14.128040367779157
Bi 15.345379619538072 6.122575740112266 14.993184313771152
Bi 18.494639108515642 9.14876799432382 16.45660375813939
Bi 19.89778510097944 11.056723212161943 14.505909219882648
Bi 15.960456378108365 9.164724661680973 8.930196568195047
Bi 16.26106623295032 12.116977098961378 18.441755591923982
Bi 18.48360540132302 10.61085738257757 9.755465270440434
Bi 14.242400501503536 8.075932909013327 17.062058789501965
Bi 17.726538429944423 9.923736217459787 12.665353268355224
Bi 12.639351997571667 6.591336062655872 13.58091026224629
Bi 15.791152160446195 10.434526607825468 15.954456179507778
Bi 18.38241265671118 13.763998915520414 14.488630463095147
Bi 17.489386859508304 13.418997170436413 10.54787068939528
Bi 15.893915000878474 12.700530439523279 13.122276848618583
Bi 13.676094330487228 11.152312101222694 8.656603006522223
Bi 9.556647418824296 9.133144502914528 15.87214898557092
Bi 12.916464157013312 7.293960020503528 10.619449711912013
Bi 13.384470100377202 12.619328264202737 19.247051337070385
Bi 12.430014378146485 9.353066649737453 14.8666097387021
Bi 16.764401438507818 14.706981398807642 16.943962673607533
Bi 15.114474591957933 13.846617540983225 8.716432881929924
Bi 13.330098706014194 15.565530391802303 19.890934234117527
Bi 14.266293166933874 9.890720315317472 11.392511137548082
Bi 16.26485365665465 16.697516400894717 11.602031830854857
Bi 10.033494909027281 8.26040914296535 11.011309845951512
Bi 12.0241447525013 13.0705004176023 16.500019958659795
Bi 15.774645862432878 18.022939095648542 8.85639645783329
Bi 13.339065437107234 17.69783716167753 17.701699738570106
Bi 14.42618569034363 14.837681320381387 14.945690338801285
Bi 11.043964208895352 15.713057640343926 17.77939111161471
Bi 8.280241355642382 16.20815990815808 8.084709523700631
Bi 9.2073823887065 11.895071804122425 16.968534606994293
Bi 9.769132339704674 10.713709547136338 9.233107653662628
Bi 14.919472967677883 17.810095117901763 15.041635701050065
Bi 12.76442614058496 17.329103993381885 9.145206563034334
Bi 10.858759859321063 10.955951241099525 12.115304658915885
Bi 8.13411974731323 10.707312733646983 13.466809893197997
Bi 13.679095434007063 15.129467283319181 11.100477702580234
Bi 6.971107213614389 10.913313791569665 10.448063713873697
Bi 15.606738339347572 19.691075195074596 11.37912707554313
Bi 10.986827461764094 14.494016064876732 13.458000812576541
Bi 8.177514475788193 13.661385115405771 14.473868551734357
Bi 9.83790109830581 14.449910175632443 10.312000932480945
Bi 9.320264857551859 18.931309422683444 8.736175688229931
Bi 6.712045397031827 17.98045771660536 9.928708161286822
Bi 12.569888690281049 19.61535395831089 11.142205847868665
Bi 7.0774484935348845 13.75357986557466 11.337759874152402
Bi 12.298093067628523 19.036713777757747 14.145880246266385
Bi 10.038961495418715 17.070364437550197 14.609448079978195
Bi 9.312708782169574 17.317970646442156 11.447560240711896
