52
Energy = -189.09600485 eV
Bi 15.078507808783451 13.414318895972583 20.66802493193676
Bi 15.36777142198925 14.903042123799315 8.615955371911257
Bi 7.394921176272492 12.757823523173148 16.84935683549981
Bi 8.32614068076378 17.919962190423792 12.120945313810982
Bi 19.84128557139656 15.394381909800998 14.379504425966731
Bi 10.234818786909972 9.796766870170245 15.310293844073328
Bi 13.163253698253936 11.582040243193266 7.911548583276101
Bi 7.358488980505075 10.811232340149182 9.800778338869863
Bi 6.874834142191055 13.610700334132805 10.737038729222867
Bi 15.831966023509812 7.643688229696814 15.807177757472715
Bi 11.781470394237724 12.294505804490099 14.451272707740529
Bi 15.958405380070905 16.533486349741306 13.550116466146058
Bi 16.26067567614012 18.31960031945521 16.621044494664773
Bi 10.405454292688669 10.346442266660278 8.596694092175953
Bi 19.94030117490235 16.10697428478829 11.352884967563428
Bi 11.950273556379774 18.31549631918862 9.27894900749216
Bi 18.05553151025729 13.765469205812595 10.72394250246938
Bi 15.193201225285339 15.944237979322281 18.566784182122174
Bi 12.419038424358614 15.515401754407392 8.042807888246802
Bi 14.336888700314555 9.563016337728538 18.10493395123166
Bi 17.871686090649284 9.867271845326778 15.575591502949665
Bi 14.116705304177442 18.793776843438515 14.464053440669733
Bi 12.35671207055132 16.273160998231763 14.003698190375355
Bi 14.873579166821047 17.12727091514731 10.6409809269334
Bi 17.72195724224724 18.272767334002523 11.49040800644557
Bi 9.203078222503423 16.81181117869478 9.410745487180836
Bi 13.347122829656184 12.506583918143237 18.39267186681233
Bi 8.868477019020117 13.281094943958868 8.385939310555647
Bi 18.55485115612893 18.17245736850253 14.56130383857127
Bi 17.76163306265018 12.596022463725662 19.672355651332815
Bi 10.821249017435914 14.416759435808794 10.449600849693908
Bi 10.101726605877626 16.546734693101797 16.042878796908813
Bi 11.30842120364562 18.622199553042183 12.315844215953527
Bi 11.97294120285501 7.39087419538484 14.650925926113382
Bi 14.368212357436866 12.716623097486085 10.498086099230482
Bi 6.401740489376905 11.55563333367271 14.266408264268414
Bi 11.838253432567491 10.21282892570741 11.253827237874303
Bi 17.2965831703865 9.758364382132534 18.696388646430837
Bi 17.72550443955601 9.451949516268382 12.184713299357702
Bi 14.87178791803708 10.737125642574803 15.233659635135375
Bi 8.836678363655775 11.84154295980197 12.411388447934593
Bi 17.692356944069953 13.268086205443922 13.780411682953927
Bi 8.787574510815942 15.286777133471894 13.617767314246839
Bi 19.76630648156954 11.696937536942144 12.151767636656693
Bi 14.494220047031881 8.433048674654794 13.185740142347196
Bi 16.367656630807353 10.524837898667078 9.692894581125312
Bi 9.884866241081 8.288220596571044 12.631959599579593
Bi 10.403228798671563 13.607828886587635 16.907250354503216
Bi 6.050932033826868 14.547812178848904 14.82047211767061
Bi 17.598103264692824 14.602276143075182 17.338681822172067
Bi 14.786220262989387 14.109304855608421 16.138109659093253
Bi 13.77421515390704 8.854756991925289 9.213344499251006
