54
Energy = -196.7282754 eV
Bi 17.5717889430586 8.953561502277498 9.649549905851895
Bi 19.5342288433497 13.34773705749573 14.600527780925443
Bi 17.789813996145355 10.88493109031851 11.973796922818844
Bi 17.27844921720814 12.0976380549719 8.578293420244849
Bi 18.788502835746314 16.29819693800178 11.775487735849493
Bi 14.417426685854437 10.991493320688413 8.363195238358271
Bi 15.978151905453117 14.59642214890733 7.054109942536974
Bi 14.716447543956793 8.16852822529369 9.767634017757228
Bi 16.56610596080622 9.463023708377278 14.381773350442204
Bi 18.812931180703682 10.76155979668347 16.047299018713538
Bi 17.312818447572422 16.873710235368204 9.057780055758702
Bi 15.33457993254168 12.57095941642878 10.877953613415766
Bi 12.82758063888741 7.196207496856912 13.908952488826232
Bi 10.882617503673062 11.46042595085019 9.99980930425464
Bi 17.299146874127512 14.896650830822717 16.19141338564749
Bi 16.964457551163772 14.301768019848023 13.219984196161104
Bi 18.009581079893728 18.777946148897886 13.357987621863801
Bi 13.330915244375245 14.101933639327479 8.201595173870642
Bi 14.544708951907504 16.29642237336774 10.231071436777775
Bi 13.165117285969657 18.646845691496747 8.826839996654757
Bi 16.221103252989007 11.05564403506163 17.750200142459295
Bi 13.464328394592988 8.888710567534353 18.039432982467346
Bi 17.16576632265111 17.934245646345833 16.177671090551698
Bi 13.269152346259366 9.65562702429432 12.05229358255383
Bi 14.971395245615069 11.999114409794556 15.12472692372036
Bi 10.288844122405386 12.153860035636962 12.965443505136747
Bi 15.931954266045542 19.71714170072077 9.6574352636345
Bi 8.117305642481904 10.16286587121245 9.801216279072237
Bi 11.406852834051342 7.314636614131595 11.223699648040594
Bi 8.82302156955829 13.638993955965706 9.088129161361035
Bi 15.584490412471439 12.888893222169019 20.149610950399783
Bi 8.474958199966176 7.904707483506485 11.848846143819857
Bi 10.141393341429705 7.487238403031974 15.405233633797282
Bi 13.30918248448718 10.80901802463684 20.45488419733986
Bi 12.580505670200663 13.259180236786447 17.579407434358924
Bi 10.471321474538025 16.181817074995887 9.334985280715959
Bi 12.22012215990415 10.502811532647282 15.755251338443479
Bi 11.754782204316676 19.48972656917632 11.468828096225765
Bi 15.154653452900279 18.7667398743028 12.364816593588985
Bi 11.497768559371018 16.55568048288296 12.306887753389361
Bi 13.399753591843494 15.347980620403488 14.532743669742027
Bi 7.514309148838918 12.554578077350339 11.63685211838544
Bi 14.855532075843179 15.293552367893726 18.34217316488485
Bi 10.457323015156295 8.334476643718236 18.36250427460641
Bi 14.000469044334512 18.13895684243619 15.663563175368106
Bi 8.631974327374754 9.839073184064025 14.13912256585928
Bi 10.658929983299277 19.141833732877256 15.145733500957899
Bi 10.83647804566314 12.534368395822062 19.97002053046968
Bi 8.939705712682862 18.464327347527984 10.742502914293464
Bi 10.64570568845248 14.807996458136362 15.75893113584971
Bi 13.086032218453521 17.80857573290655 18.579202193742265
Bi 9.575704404259586 11.136365434040925 17.628961405178813
Bi 8.857664242613597 17.245782728844187 13.670808800584844
Bi 10.272070836252151 17.26795065210977 17.539142729693456
