53
Energy = -193.49291828 eV
Bi 15.10565685306866 9.900981903460677 6.044798343133631
Bi 15.532303945637194 8.620003047524225 8.798282553504764
Bi 12.826112300624628 7.6355607040616365 11.691557502337432
Bi 12.733803541163145 9.127801417543246 7.7300760403483
Bi 18.592696929541443 11.513345252834933 10.673715548929756
Bi 15.017129852652667 15.170342561333882 9.329374021909578
Bi 16.355525552530747 8.23795867848564 12.38548513503942
Bi 19.32809431746458 9.092664572779977 12.355023669983616
Bi 13.668917186121016 15.868845251835864 6.62689169793294
Bi 12.012812002339256 13.438036930551872 5.6727967947167075
Bi 13.76133565723861 12.02396801184908 7.735444709097756
Bi 14.387988336189657 18.118137427666607 9.564214232435814
Bi 18.785269472508304 13.123827823577876 13.238082347478882
Bi 12.616319012819506 10.365463427456692 13.078350880359066
Bi 17.60021323871949 15.765336259295252 12.221602570057255
Bi 10.042790538438858 14.650075841246926 7.669760872808463
Bi 10.217135511601649 9.290786422989054 11.19705026773002
Bi 11.40155865357265 7.942896836820422 14.38467693697752
Bi 15.601760082759867 10.841342272569797 10.935213759903828
Bi 7.9901057330636265 9.497701039117812 8.866152347142034
Bi 11.757539167023811 17.791735160636385 8.023444175985473
Bi 14.754133005309896 15.285941915067875 13.29914882390066
Bi 12.669407293624577 14.341189872992842 11.14275925178985
Bi 15.568196309436262 9.236119149016425 18.166314713126358
Bi 10.568977891943915 12.32278472637555 9.530500112305546
Bi 17.62732309204754 9.395947674090884 14.896193502491775
Bi 17.91865772659269 13.047863590493927 16.97911903653904
Bi 16.27490647155486 12.08579704055221 14.603257375078165
Bi 7.621756412142781 12.55994338415145 8.40334117315634
Bi 14.894045267633093 18.29254816210561 13.072116922372464
Bi 11.1980827994756 16.98016780009027 10.95120971460144
Bi 8.236615253583691 16.073811889249022 10.821056160316166
Bi 10.270502752955665 12.74434902955746 14.556639393228838
Bi 16.44119034459548 11.892550454025475 19.377795496180187
Bi 13.125071878642439 9.627412762904111 20.023343828044467
Bi 11.04121737614305 16.66354667192698 14.494182574046366
Bi 17.41158493524893 17.40450391081579 14.806683768493942
Bi 13.46341107160056 10.78334328127256 16.512447808352686
Bi 8.298119613074533 8.39316296923961 13.471773645011751
Bi 6.575737451114005 10.082021698963745 11.378310720374854
Bi 13.701956053258808 15.082801687594579 16.49634774594893
Bi 8.064714286502936 16.977051828453828 13.714217976436837
Bi 16.587895723729265 15.780669549473568 17.30176947822767
Bi 8.242328440011729 13.026807817347615 11.436551259944963
Bi 11.233625753692165 8.99117203325418 17.629718229502572
Bi 12.516570745072762 19.291631829469747 14.78612428140568
Bi 8.047906029982844 14.605268748065205 15.67609379370114
Bi 13.845286470026766 18.03875811590832 17.234838793152985
Bi 13.438619056588424 12.576849919332437 19.064644211225236
Bi 7.798105840337621 11.01198924272641 15.024458201097302
Bi 9.671882921330626 11.614950328516555 17.37487420923049
Bi 9.592695837854482 16.840271709080618 17.148818794354444
Bi 12.012484407036812 16.16134539154547 18.876748777459735
