52
Energy = -189.6038461 eV
Bi 14.988435272170735 10.04568322750798 19.829840063361495
Bi 16.120138866669006 7.957729572566167 16.629876291076698
Bi 13.29950348852397 9.265584859767172 17.30772966799163
Bi 17.365411337860774 10.41402510475214 17.905384872333084
Bi 20.425276649445518 11.354336355020283 12.251442240859301
Bi 13.022060848984088 12.049904465412304 18.71302654328897
Bi 14.55095746037676 14.553243652124673 17.89145685214863
Bi 10.69888593795346 6.6919263492673124 15.88321239906452
Bi 21.52460085575749 12.420142173075108 14.844434868112307
Bi 15.481502126396924 11.277318495309792 15.620349570932982
Bi 16.77972418459055 9.075464285477356 13.851448665179385
Bi 17.666037296247648 16.108355233840562 15.741479612013054
Bi 9.145510859819387 12.21000781916583 16.2992098033138
Bi 8.093513178736252 8.223990008432132 15.857990422693037
Bi 11.582386279320332 15.327779542775346 17.751486096060916
Bi 17.335482397530235 10.336298650390917 10.062579330192943
Bi 9.129030752748639 7.022239763408914 13.300155805948311
Bi 21.33067449852351 14.237509247667656 12.454216107373478
Bi 14.025642592492742 8.318681916544957 12.783117347579276
Bi 15.226086235612264 14.4124769777661 14.890861654630394
Bi 11.068156778158864 14.164481658059879 14.929862722118601
Bi 18.485339256668315 12.700385917882825 14.270118235814838
Bi 18.43144625832351 15.487845862032753 12.838209615505326
Bi 8.400742159519547 15.207858488231583 16.061685530814625
Bi 10.58320645772328 9.408088255585236 14.501360720330723
Bi 15.356979220827629 17.868351932031793 14.735543340424963
Bi 8.21725940946759 10.4254996842807 11.677388635961162
Bi 16.35120826552173 12.962089798852046 11.382179250537051
Bi 17.17917044307944 12.078030758394286 7.555922950317936
Bi 15.785821948650767 17.482357138509123 11.237510778852146
Bi 13.27447161444528 11.27319004356154 12.534529948982032
Bi 14.243874465982348 19.0099944945721 17.338327483255075
Bi 18.20365071803327 14.378589712864166 9.308229319816546
Bi 11.887587034488794 17.553878963311128 13.961879081437212
Bi 14.334658968323632 9.69292542937418 10.0866753385386
Bi 15.018296183943267 20.897267549329918 15.055587360107408
Bi 7.001977339860561 11.760531412826245 14.168620137787782
Bi 11.01675652893704 10.815662185311231 10.49694826985333
Bi 11.322589808097652 18.270212855796 16.89559288033432
Bi 15.891013065326188 16.18583465464806 8.43089732184739
Bi 9.10708012177798 14.770129248447276 12.089369932534943
Bi 13.558160998763464 15.434959167807717 11.834261150719772
Bi 6.510403675426134 14.731355442342954 13.709723303053385
Bi 14.554536252574758 13.426450732077331 8.86899827126142
Bi 6.994485440729932 11.864127301974719 9.258136100450445
Bi 13.692783885946115 19.59761325171039 10.501831373578513
Bi 12.605915952060844 20.4328922597857 13.23850376833687
Bi 11.327403594929525 13.714879209227224 9.708030406018626
Bi 7.448588811933627 14.865876601392507 9.471241020627126
Bi 11.753906048988425 17.210098922835545 10.005818200003304
Bi 9.525012879611303 17.806903957724895 12.004817791555089
Bi 9.161985654212737 13.207336201470193 7.590975919229617
