51
Energy = -186.44138789 eV
Bi 18.581699354996395 13.4786503408824 13.262653013383982
Bi 17.387755239689483 14.342317068233273 10.15310636879874
Bi 16.77332327106348 14.411081873241343 7.075912778988671
Bi 19.957844916668307 10.709404581991649 10.592068875509009
Bi 16.904649950706396 10.79607785445692 10.102537334201967
Bi 19.70122316712493 10.63582046643853 13.634813856897141
Bi 14.044496847426386 15.610857363020031 7.920678152237959
Bi 17.184619557930127 14.827442410413495 15.70905473012988
Bi 15.762078304793052 16.397933783348073 11.859119242985535
Bi 15.011362171946855 18.128695468567248 9.46443920390017
Bi 16.473146847238684 11.321268118418969 7.0783963965182215
Bi 14.41944625246231 13.507965186836653 10.112104302721267
Bi 15.59326924902912 13.099777302620364 13.705926702315027
Bi 17.299732202814663 17.532722229171164 14.316710506329967
Bi 18.335667168966854 8.120074326215633 10.22202646902267
Bi 10.794566799766734 13.65888975474849 7.646264078189673
Bi 17.90080840327418 8.188586739780742 13.237117228543822
Bi 15.796537931898097 10.903143601567262 15.827766389077523
Bi 11.04457593247918 16.277134978337035 10.28504418203247
Bi 13.286004575269722 11.345595959540955 19.32096648831723
Bi 13.518831572095774 11.07956858129742 8.062930380020896
Bi 14.726949406731134 19.090982081379668 14.972208459274135
Bi 13.563765286657466 14.394546352679141 19.804159992887527
Bi 12.389783472462868 19.017898055792223 10.796517280419076
Bi 13.988675259798262 18.073467275747124 17.76438163936518
Bi 13.814704577406888 15.198500823154866 16.846140411415014
Bi 12.314285054527508 17.825128256704794 13.618663432907955
Bi 13.898464453850291 8.646246947785153 9.886689341026152
Bi 12.794795208787814 14.958646714796762 12.434358422156903
Bi 8.860787867213297 15.872800817158513 12.48634798418824
Bi 14.966470925196074 8.582477799220612 14.06555756719635
Bi 11.636829544117791 8.57788576461166 7.816226258258102
Bi 10.706125293093105 15.510092515712174 19.744565844564256
Bi 11.952394463985344 8.676861186065686 16.356652287080447
Bi 12.810183214519174 11.571564291131718 16.323912114834144
Bi 7.81380187260292 14.245655128538194 8.003974255023977
Bi 10.791808639837924 12.442997706621853 10.52504813648829
Bi 10.365979115589019 10.912837382636184 20.14225362880485
Bi 10.32133504122622 13.973388351430941 14.627469833527035
Bi 11.212867625647428 16.903934467040557 17.016256710521404
Bi 8.690959857981014 11.537867449466921 6.926597338433985
Bi 13.11416181335726 10.330011812675753 12.304771103553218
Bi 9.942560002589527 13.089668621645858 18.08012490516985
Bi 9.384149868292402 8.989599001274376 17.980142188327445
Bi 10.69224579082196 8.913422787458527 13.577864217417755
Bi 9.451992157563197 9.893303392459723 9.42009411136922
Bi 7.876963937541293 13.396015139887623 10.960094472203435
Bi 8.90611303028318 11.381726426421544 13.686935986359622
Bi 6.929295661943672 13.12197897796315 17.683578498964003
Bi 7.90165972463665 15.321949170497298 15.820978560285274
Bi 7.388166438711122 10.512554413579295 16.186396599280368
