53
Energy = -194.35047976 eV
Bi 8.39676707114761 14.486459780457688 10.147386668831935
Bi 8.69855818869594 8.278283127526839 12.925131898919322
Bi 10.954111156388814 19.351603922168785 14.56698471014501
Bi 8.532804504154385 7.878702510775339 9.893447793896025
Bi 11.274000398046168 12.409153696658251 14.977240259140425
Bi 12.46151268411639 16.650189800867864 11.102238405437793
Bi 12.622549224576495 9.720826714059154 10.179105678064886
Bi 14.252894299946364 13.701167968605509 19.33122349291873
Bi 10.455726164183181 8.774464174569562 16.35523136182952
Bi 8.587143690403389 10.761281954991551 8.796113369338782
Bi 9.995648674013466 14.97992209047476 7.562383478844961
Bi 13.718086585381577 18.881951242473946 15.735005394011807
Bi 14.77168223607634 20.341326942978615 13.210702307917005
Bi 11.32737825933157 7.294081588901186 8.822946636276718
Bi 11.826881787258735 6.245935251686853 15.004834374137532
Bi 12.136999574497478 19.642069167505863 11.736223443072724
Bi 12.439170229289875 13.471974042419127 8.602555084476903
Bi 12.690556870461963 15.837563612426484 17.675781846501412
Bi 11.698093871566808 8.903385110169348 13.524056240221537
Bi 12.490219306025335 9.463051327046859 18.597183325370526
Bi 10.544244124797315 9.45054907580058 6.791454706247883
Bi 10.05747646670628 12.090212274638455 11.134910834677605
Bi 16.288946057281787 11.437343034371064 9.415687940388212
Bi 16.054818712347334 8.545648282921807 15.23872690658194
Bi 7.50619773936536 11.014112672907281 12.408469185814043
Bi 13.248996515361297 10.777990939256549 7.383156690036638
Bi 8.247631607840445 12.813772022290939 14.80454621675498
Bi 11.88621987902891 17.33372492493275 8.17439235046042
Bi 9.487052240138263 16.946936693727007 11.597878027631268
Bi 14.614834668944964 10.715316109095 13.624312539700622
Bi 16.461341083628113 15.290164026711354 8.846754350742394
Bi 17.69761576552956 12.566781511282384 11.924744363712996
Bi 19.724542058534006 14.835610999981714 11.54422280325001
Bi 14.0574968525037 11.610295318825102 17.137219585066404
Bi 15.45093643878247 9.0805350793506 11.176172737052342
Bi 7.8896533626284935 10.567725422457018 16.915134498048037
Bi 16.295111145206867 13.73361323769229 14.876873285784036
Bi 13.960317721029906 7.107329860515366 16.92452536906385
Bi 9.811153467690366 16.478957945187656 14.60709320456129
Bi 15.015711303283865 13.718689823083878 11.029840355386483
Bi 16.50282571183174 10.019385265822754 17.887253497847958
Bi 10.234165711429547 13.837878793249446 17.45673801971584
Bi 14.01057483010664 15.473921763259254 6.959000989498086
Bi 9.785445817761492 11.304481649237886 19.09688949868786
Bi 16.186856451011913 17.999060015893587 10.133787701702312
Bi 18.175016092277442 12.397252782121235 16.921147837149785
Bi 18.68927025991476 17.68877739980698 11.655042083830875
Bi 15.984461920183046 16.172269278522748 16.8378140180481
Bi 19.134789251053984 15.038257607053952 14.568175758285985
Bi 17.21118630894455 14.366933138133962 19.058406326268816
Bi 12.585306810717066 15.233156967067458 14.637218518633576
Bi 17.937271341772252 17.888294418628057 14.889311305432642
Bi 15.307077540495705 17.403460755392576 13.352381147029277
