52
Energy = -188.93834095 eV
Bi 15.155929122618103 20.620967813943196 15.454638905241747
Bi 14.017003172411439 16.43558645997866 17.94586349849669
Bi 12.92931364047442 18.668991541294165 15.058559285178399
Bi 16.04836430855604 20.75203622061228 12.503873166017
Bi 10.915746019023228 16.789003545605155 18.980306666787296
Bi 17.89326131406132 19.3964578394245 14.539181070683536
Bi 15.495205390051117 13.697264389300312 17.786907887459726
Bi 10.897567522434334 13.920602431989495 19.979710983877435
Bi 13.892881160686915 14.41407886867466 20.296243061536135
Bi 13.116621351546133 19.655195161344206 12.229684352599387
Bi 15.45778977054065 16.459046994542607 14.543021345802584
Bi 11.926462904989087 15.1960049587186 15.859440584005185
Bi 9.442220403811719 17.103742848749697 16.401991770604788
Bi 16.649438228901996 17.488951675732675 11.848134671918572
Bi 17.083638722667228 10.857214644997319 15.592364231022678
Bi 19.837506705800283 11.833233055748469 11.970488520048793
Bi 18.108619669545977 14.835735467211085 15.290795744550199
Bi 7.117226282570045 15.151971699781772 16.337962687800132
Bi 11.101267584077698 12.517920584852924 17.277699645532934
Bi 11.805034640961072 9.042723701098435 18.358301991995045
Bi 14.156104635723455 11.875415586921171 15.70612791462108
Bi 19.259262946886277 16.87158075827507 13.373326769708507
Bi 13.22833056459314 16.829089626861087 11.029529155233826
Bi 13.823641162070805 14.025326275426881 13.472023495222292
Bi 17.205541678377593 8.286932119134114 13.956312650268954
Bi 18.77515344066531 9.00555508851764 11.446774157221443
Bi 9.351288820206168 8.712254396111137 16.65454638784067
Bi 17.244421775159385 12.753169438330723 13.269268617296655
Bi 8.066294030737291 12.411674394791891 17.289285308114493
Bi 16.132145359331876 14.347078087022844 10.324072958865786
Bi 18.53528391095142 12.694312152260983 9.314558277345116
Bi 17.017972772124935 16.667395017279894 8.403150263088088
Bi 10.087858338121427 14.62646534122558 12.97193725676905
Bi 12.122425276736095 8.444842859819332 15.365729232990875
Bi 12.207105996332846 13.617420781395763 9.702056027533628
Bi 14.056707394368186 17.38561626556123 8.12823768598052
Bi 10.97141410973106 11.663230261093409 13.699397030288397
Bi 10.164167588494761 16.642950990090135 10.533698432514166
Bi 11.08593925647018 6.3063555625730645 17.254462263769483
Bi 14.892744869678102 6.620298083765829 12.873056090721278
Bi 7.980518938505141 11.364452910515634 14.383377723770781
Bi 15.052389113582949 14.587268044488512 7.443629069341927
Bi 7.10787698202485 14.16780487783792 13.413297825596874
Bi 16.924132223706497 10.076365833120835 9.239770788337696
Bi 14.439763446873767 10.533651364329765 10.931645366619165
Bi 9.28615565130116 12.773670755053521 10.054033236783349
Bi 11.96988289974087 6.940156516447124 11.920689538190436
Bi 10.072089011885984 14.933531176463752 8.019103755514935
Bi 10.05493566764753 9.312836045287352 11.889576646419872
Bi 13.049472368185363 11.021584403539586 8.263066609179283
Bi 14.280469469185444 7.620142491011506 10.077263321663517
Bi 10.234671776312096 10.02903228704762 8.933636377810588
