53
Energy = -193.21339109 eV
Bi 7.9976013880924075 17.756097025963427 16.295263916935195
Bi 7.9814428823883 13.208841432109326 14.911027593767137
Bi 9.594574187519667 18.064421164332394 13.720986940768679
Bi 7.326430474958691 16.015634069189275 13.84514330010508
Bi 12.614346441169465 18.806950243338903 16.796751473142052
Bi 9.257365499895212 15.611572884554434 18.034149333326408
Bi 11.682670920947345 17.087045998459267 19.141457011104386
Bi 5.55783646302162 12.27875453441901 13.16750315071482
Bi 5.190607897587303 14.311515004705626 10.923944623122573
Bi 9.695989496364087 11.597406992282249 12.938639948375084
Bi 12.219241197975563 11.917502084065003 19.45805759534645
Bi 8.235923419344415 14.18071585145083 10.876020960226942
Bi 12.44599663328746 17.071448606231883 14.253555530340266
Bi 13.04841481029061 19.763811065537332 12.846723126204074
Bi 9.474652485638154 9.76860242751806 15.446057827972757
Bi 12.266580967243272 18.968297867413263 10.013695018753419
Bi 15.562878975925925 18.147835582461536 17.35276926836771
Bi 11.16649429222031 14.37104345276878 15.94694964992768
Bi 11.823592937775963 11.421342473581547 16.43005988361148
Bi 13.255905299175197 14.56670963876024 18.292652177838896
Bi 6.542757502123903 11.680699060787004 10.34641251040163
Bi 9.397461271014498 15.381162134638796 8.29145910993994
Bi 11.244541845817608 8.225299155353984 13.420734706300784
Bi 13.394915018590755 6.133157503408415 14.19922646888492
Bi 15.14943506800985 18.534692753515678 11.02439451055987
Bi 11.33508235402945 16.10361081556581 10.591978180923562
Bi 12.582838666844594 12.76701999093757 13.041367902209144
Bi 16.683057071824315 17.939818826265732 14.496459817893593
Bi 15.564813737341224 15.458704523958371 15.935338068118217
Bi 13.885443605545277 15.519805800419208 9.053562168174057
Bi 15.307141984245114 11.598215922261412 15.900745813884265
Bi 13.761669971175799 9.879562300267825 13.177197447502767
Bi 15.33005739850769 8.873035762666891 17.262162493637728
Bi 15.205234234392366 11.36541276441171 18.992747732243075
Bi 18.013832767290417 14.00693100584452 13.502495477235737
Bi 14.932340442307492 15.648731231130055 12.057979333347896
Bi 12.961210827200311 12.620626419362207 9.821912452028394
Bi 10.650886490206169 12.651373624658385 7.767294544733625
Bi 13.147674124347875 5.721252022120107 11.188143313555898
Bi 18.572517329819025 15.950216231734595 15.826792797962163
Bi 13.239324513192612 8.717930165072307 10.352435639572656
Bi 16.325721524502413 6.596168530753145 13.320493678960341
Bi 13.202587484427953 13.59631337309525 6.4335651391939646
Bi 16.476163086645418 11.004957963934679 10.929477984470918
Bi 20.503652643345855 12.285779394511462 13.112296316936026
Bi 17.95438801613395 10.250364914801935 16.60995224424807
Bi 15.792457883894066 7.061531015229137 10.375973775170108
Bi 19.86460386444274 14.50886916886201 11.15012731508669
Bi 14.257945908612562 10.958439194152783 7.426587259376323
Bi 17.136844646616115 13.798012133640992 9.87408607942543
Bi 18.60200566877595 8.410928145098922 14.261950221110045
Bi 19.223592936785526 9.945717673342605 11.692667374798187
Bi 17.235774043990176 11.320362873588804 7.994171448165985
