51
Energy = -185.63576452 eV
Bi 10.157107830147273 12.17493780428808 18.733369079395292
Bi 9.823195433361438 14.701533981255544 17.066037047727413
Bi 13.027174444268278 11.928107928627764 17.704412822244233
Bi 9.331039202323097 18.676946559539918 14.047823346877344
Bi 9.110679287658387 10.216619805001402 16.600479548282607
Bi 12.382656520315873 16.399487923631593 17.676951771958272
Bi 7.571317145846761 17.284508983736774 11.954387967163763
Bi 16.981804887018004 11.309352344267676 16.990582596305007
Bi 8.595760350921482 12.027456040870657 14.218629109722286
Bi 13.663232867004732 18.512658328175448 19.672841615366618
Bi 12.691135055430658 19.064355733234752 15.263532256285863
Bi 11.603832110371044 9.33328435294023 14.988124196102644
Bi 15.848551461644236 8.552218630771932 17.694754579210183
Bi 12.283096557180427 13.839345324056952 15.39661887237639
Bi 13.910360258851922 14.383549362841217 19.32832199967484
Bi 12.874153348765097 21.63078040128671 13.618321467723908
Bi 9.714142080057835 15.683596020056433 13.488711723939605
Bi 18.683164007987777 8.715811437565522 16.707549165018623
Bi 7.738808161430018 9.601180988569375 12.524404040652016
Bi 14.98800530719854 10.987164864800961 14.56380530458943
Bi 11.060585042543922 19.907684346876582 11.861162342216156
Bi 14.949735999681563 19.86175738929913 17.27333759424834
Bi 15.14467079010145 16.293959552285656 15.370408576573052
Bi 9.270061595098158 17.38712802825964 9.428874785062952
Bi 9.835006059624131 7.512025817883168 13.324430104420612
Bi 16.49456586351482 17.79555158904826 18.898884699795293
Bi 11.474672011007787 11.742615118762288 13.064821956779582
Bi 15.264439973538419 14.16235228671381 13.067505773622234
Bi 13.925996731805183 19.01741734240361 12.487270130920438
Bi 17.959316152528206 10.857910730624605 13.718276959244688
Bi 16.459290352515332 14.931625200228094 17.736727378562616
Bi 9.406422458426592 14.324935129777566 9.578734459190294
Bi 14.561089581988142 10.032660893259449 11.199463814394429
Bi 11.519317134297014 16.003991109204616 11.006164903549154
Bi 14.928331923711145 7.92657192974885 14.791005537595828
Bi 9.774815944326434 10.774569144152705 10.535504241565354
Bi 11.516118818003859 8.380146636589162 10.92796557437103
Bi 17.804474424361228 17.217000916508894 14.01985707264294
Bi 13.695414543423956 13.526492499834132 9.961655930706229
Bi 10.793666790500009 13.736035098513364 6.9067873262283985
Bi 17.560705989151415 10.921689073244796 10.52725825018356
Bi 18.332871648496663 14.457241032800816 12.791240800260647
Bi 14.362752070180447 8.336785602445397 8.633418799822865
Bi 16.569085829580423 16.388191405558615 11.330658239881979
Bi 17.90692933290324 7.830525406280118 13.854881469703448
Bi 12.370274724647519 11.339723505108848 8.126557804195361
Bi 13.513256785921278 15.089521548630682 7.2849467935721695
Bi 14.849006409602175 12.411812620823666 6.555630644504473
Bi 15.522732116222343 7.081895443590851 11.174361033092811
Bi 16.589973597710213 13.340469279182825 8.900102639694227
Bi 17.395735380200993 8.245436028313687 9.063962829326034
