50
Energy = -182.15236311 eV
Bi 15.928315550900733 10.177965273241766 18.258930727708737
Bi 15.939193064706362 7.775230494762345 16.341226578393538
Bi 12.919032021122643 9.88055020155396 18.548785058037147
Bi 17.524887533829812 13.785800984277154 16.720481763964926
Bi 19.86948931199308 14.686579108938496 14.89427461668842
Bi 12.527219687659402 12.125937709023118 20.575682823295825
Bi 14.606971673830758 13.810532066085498 19.012983557334
Bi 15.410157756807383 9.545866445536006 13.941487988159563
Bi 17.62555852915078 16.804134771663055 17.300663335848714
Bi 18.572469931190955 13.153943526070378 12.509430794777783
Bi 14.457591127579223 6.826664282861407 12.878144117919321
Bi 14.098132110217753 11.93849425259882 16.587541630454922
Bi 15.589316783089588 9.227545523338266 10.351033192406211
Bi 13.083198122163163 8.13912082117487 15.291186214096207
Bi 17.718737825615214 16.811282952426488 14.234072967654308
Bi 14.960006431119316 18.199983554612817 17.898360836017442
Bi 8.023085676120502 11.48267126890422 18.30023271973047
Bi 18.097422869116084 15.376307249974326 10.373624287800851
Bi 16.075655733317962 14.225351627794996 13.981440455175155
Bi 13.203385784508411 14.847816327345143 11.516413746853038
Bi 16.568668122871276 10.622611010742833 7.770374942495823
Bi 12.777460097580867 16.087253294935582 18.192443699769754
Bi 13.00679412580416 15.61418212232166 15.14414711829497
Bi 11.33168360862405 9.927593886186852 12.540330779502057
Bi 10.606012815786842 13.376082714136919 16.306061101407305
Bi 14.35955687207582 18.41967300890704 14.886898518974082
Bi 9.934518522045614 10.362158566189951 16.138824525559716
Bi 7.642250942662373 14.079034760993832 16.698285366059505
Bi 15.553209614783103 16.79052168799358 11.311890542311353
Bi 7.3897290249452405 10.291984382973787 14.442106913192955
Bi 12.742520840431146 8.034440199397611 10.6272356022739
Bi 11.824492249801413 17.6387325143505 11.7003733144939
Bi 16.136805371719472 12.29510805226979 10.245575730201407
Bi 11.179350784057966 11.848310694099013 10.143111903551418
Bi 10.11576912402863 13.498360195914128 19.340026708150575
Bi 11.329193013062538 18.06176725058031 14.678116695959107
Bi 11.374473142227178 15.071151330332459 8.93055333561988
Bi 9.725274387125694 13.804367851339094 12.777718739628755
Bi 15.668962724726148 17.81340319858445 8.392280543027063
Bi 8.12616289341853 12.095993212582503 10.462244382842599
Bi 13.961528840893397 12.137520331857962 8.105198182882498
Bi 17.161595860692604 15.311543946659858 7.393056081945351
Bi 6.915659121309408 13.229005456610986 13.846006405201384
Bi 8.437629033089221 9.311459356146912 11.72059761345952
Bi 9.227646610502534 16.197905626244623 10.971478075696758
Bi 14.516859051144431 14.456809515554104 6.130448974956132
Bi 10.909652921294853 10.328114923370466 7.4029959828791325
Bi 13.05218702195685 16.95668349888786 7.071035603126981
Bi 8.135361317708162 11.541149877156268 7.304263893913964
Bi 10.47483999206655 13.12149005351149 6.395904389726293
