54
Energy = -195.93571462 eV
Bi 15.41536487271347 15.035953978020203 14.403524371218872
Bi 18.96918881155319 13.919109701499952 13.576981498553895
Bi 15.324539949745725 18.801389983547654 12.744248045835153
Bi 19.60646783286441 13.30615137130302 10.59226783077546
Bi 13.461810236028626 21.874033270708853 18.36432329789886
Bi 9.72304722019609 13.000187207260609 18.053452453503624
Bi 21.174616786138223 21.137046606976867 17.29335257503687
Bi 14.050997413645772 13.229482953630805 22.361614805236613
Bi 20.31441186093449 19.117643470985175 22.228853987715326
Bi 13.090797697118303 11.522963937420505 12.928592540163972
Bi 15.790553962422104 24.22430217751791 15.934134663128045
Bi 18.196902121288744 17.07381714499506 21.511848174328705
Bi 14.09153661941234 19.14257288586127 22.557456695051005
Bi 15.512325119435337 17.881345651329937 15.598862956753957
Bi 21.050508840154716 16.268143406476398 21.544687183116952
Bi 15.726357756468309 12.317167419858276 11.610414693526568
Bi 20.115663647390228 20.03828313877011 14.704022571216088
Bi 14.417890629740151 19.184015014401204 19.526553093057647
Bi 18.99110480264902 17.406154767385402 15.770205681839036
Bi 14.177496537196333 11.555242042980874 17.523374210442025
Bi 9.413138555214754 19.14520998934231 16.02499530163707
Bi 20.41821571927911 14.370761872818141 18.422545768039292
Bi 18.509924433523835 21.406069311669548 18.92923416947059
Bi 18.068654060351943 11.053120581096449 17.341618773492062
Bi 21.762395841351946 16.41789688960733 16.58974505124445
Bi 14.845342699560973 9.411219031085082 11.670629985701657
Bi 20.80829577987064 18.604184123358934 19.23398563786148
Bi 12.290216810722267 12.3770953905419 19.92589928847196
Bi 17.45871472053786 15.455945734361844 10.34377156083716
Bi 11.91176305708513 17.989394587301884 20.843966834514987
Bi 14.576592687826041 21.39927798832336 15.558268999469579
Bi 9.90864208340442 16.15180929027645 15.89393886241164
Bi 15.526441526995697 15.52940587970297 18.47953381235607
Bi 19.613057392825755 11.095742246536954 14.67511047219274
Bi 12.131071023118201 15.110882077633454 18.623677370365233
Bi 21.599038205647485 15.512856707406147 9.795577759152279
Bi 19.3507942594061 17.448755812076545 9.030042722695766
Bi 15.958984066273834 12.935632730267917 20.057790086098045
Bi 14.143319912312963 16.110633891230147 11.782168453347431
Bi 18.69107004833966 17.713595987789283 12.05240693240836
Bi 12.279331735036752 18.10460685192056 15.346039810101635
Bi 9.150051320362675 17.73621096655064 13.422376859864706
Bi 14.367371233463558 16.21374016538044 21.472443399827362
Bi 17.707146887434472 21.75861297918771 15.973808089349111
Bi 12.913191045317163 13.811746921916841 15.880085379931138
Bi 21.713638877373235 17.14195929125287 12.381349796145326
Bi 15.95453124203973 23.531638448329133 18.834388990943545
Bi 17.80367059198109 14.081454917708827 16.839367665627424
Bi 21.86582623604527 14.644272987221315 14.108822090536709
Bi 21.07105869690083 11.560872825271932 17.315040337583383
Bi 12.126400271197486 18.35983725451586 12.292635852319224
Bi 11.20660738348725 11.182435707086114 16.29205645450288
Bi 17.761140123205408 18.34540468749204 18.587080804249346
Bi 15.801431719489091 10.772040858233504 14.214633477348938
