54
Energy = -197.26363609 eV
Bi 13.301319758060266 15.473239948502 19.37605166015894
Bi 9.730224929780885 12.587159657690046 19.510800649749495
Bi 14.134424590304096 12.522204064031781 19.432723119445097
Bi 16.034985095058218 13.22329938391995 17.12550660132417
Bi 12.611690678135515 8.847984448379101 18.597115846339296
Bi 13.954053186545513 16.272650359455625 16.4498854018128
Bi 18.4636550078418 17.69906780765297 15.03233738080674
Bi 10.448731435049735 15.254448475129092 18.273277819743672
Bi 7.331756155338298 11.922705015429067 17.7347005392012
Bi 9.719126122779928 7.95781244219804 18.06530714113826
Bi 18.26922546991194 11.263964554751363 16.54001205103027
Bi 12.672411033276886 18.99382559987743 16.826934707885535
Bi 11.503528261745378 14.550325381747168 15.405429764583737
Bi 11.872750538933804 11.694842182291064 17.568914289739574
Bi 16.616255124053488 19.600181125245268 13.56461028714662
Bi 19.33645212254658 13.60257010483289 14.847644874579341
Bi 6.815421593552313 13.892365701275978 15.402492293462773
Bi 14.397459364174933 9.176393664589238 15.862551851962433
Bi 16.76896080328627 15.276046676836472 14.332074128878606
Bi 14.501398643068272 20.97185803002982 15.296352551823913
Bi 18.83631779963929 16.300400266366086 12.307309497779212
Bi 8.255025596552139 9.612990406617689 15.973714683246861
Bi 11.905524394857462 6.5776124690449835 16.562628749091985
Bi 10.152628878137048 11.407728403000478 14.406033993563732
Bi 7.467413683292055 11.995364704557826 13.155211140097316
Bi 8.88325649931238 16.140329252976002 14.991118919811726
Bi 14.378786289495256 12.023953420537334 14.7039461010212
Bi 12.819718617781017 7.6061855879425675 13.801914633303358
Bi 14.345389088859267 17.702317622815386 12.6746508295938
Bi 11.485153106619757 18.220771265280916 14.123782340780313
Bi 16.88328951597874 10.202740163376436 13.93690943478915
Bi 17.398577873833347 17.75850207700373 10.024532900303672
Bi 13.284733928124774 11.241855769383335 11.56380227953265
Bi 16.592726413939683 13.394047720838628 11.008485273427306
Bi 18.94726770762983 11.854577070226203 12.403389978524334
Bi 15.213734697373523 9.016553302386491 11.060198178106788
Bi 8.148985006349106 16.05515555340456 12.004490670459205
Bi 10.70737293645549 17.373337149003817 10.748819183479478
Bi 10.918465911361677 9.397281189606577 12.243296609517298
Bi 12.98405137176539 20.476379095184527 12.687776057222058
Bi 12.064045094960397 14.692757303105356 11.484752592864176
Bi 12.65607540115597 8.403697172784936 9.03413146787545
Bi 14.275552803107344 17.621775388942098 9.582285026703616
Bi 16.841213311252066 10.891122333304134 9.230111330586805
Bi 17.688240267796097 15.032897193075295 8.6953025517067
Bi 12.059881989931112 11.433410585666966 8.537230731175962
Bi 9.247811061120602 13.42731551109974 10.965331845227631
Bi 14.805055037020603 8.480229340133615 6.859326639865326
Bi 11.13023232819925 15.169569616721155 8.660858065334091
Bi 10.715897824574059 7.1396936664944555 6.8340127446927035
Bi 14.481070970619676 14.743528632414094 8.826405446077757
Bi 12.58180395276151 8.336680845507916 4.756333357127855
Bi 14.768891130528585 11.529842870234164 7.075009825466554
Bi 10.483295656013539 10.017987310931632 6.134587186204195
