50
Energy = -181.65943816 eV
Bi 7.851578791427147 11.651653893964127 13.61579503966396
Bi 8.64151989268047 15.226616322998785 12.668594430483203
Bi 11.556550824022434 16.609197676487724 10.888814991995902
Bi 9.642089973480662 18.222339486941422 12.723196583679758
Bi 7.206086876788697 11.30682568168263 16.7288367092021
Bi 9.685446814445715 9.533225179669527 10.291051308390319
Bi 13.916253796236925 22.033547799735615 11.977208795497178
Bi 10.266906933831155 12.509429570017078 10.827899656567356
Bi 10.94314177163343 11.571683969159514 13.804933968595545
Bi 12.391105347600746 20.13433613365972 13.841830108937158
Bi 13.66428305917741 18.635166028221473 9.901793945839318
Bi 8.944972928079991 9.098815240067628 15.117321574520671
Bi 8.796620034661261 13.893714374351521 15.622834728752354
Bi 12.269271339380103 10.790748276736739 9.263748085995923
Bi 10.314686666002347 17.115792607822463 15.526560969418911
Bi 15.167114885807765 16.44980412885649 8.411915179787805
Bi 11.53163516739135 14.983794733898321 13.626173896744964
Bi 14.229050627137893 17.694727463006423 13.570951019410526
Bi 14.277846757960408 14.153412285530894 10.301388891768061
Bi 9.991451655468264 10.418809117814552 17.659971378988807
Bi 13.914843335916116 22.563723318648393 14.954303642232334
Bi 16.515104070373624 17.889959562710068 10.732047552985616
Bi 11.3620174551673 8.594668573640005 12.727892309320655
Bi 16.483424854959672 21.764795042373354 13.56686297228115
Bi 13.687498422384573 10.579875985575274 11.9784282568462
Bi 18.64375412890232 13.444295746998764 8.434923098637213
Bi 16.17870446779599 8.811947554266817 11.947093826300037
Bi 11.766581756303452 12.937392824228954 17.41954984157584
Bi 16.369263810906524 15.210207178900683 12.33195482116879
Bi 15.222716938675765 19.362244398320176 17.205317896624727
Bi 19.13598370981625 15.058909190217653 10.9306976762692
Bi 16.101196606463077 11.941755574760178 9.240801062180019
Bi 13.228487654328628 8.63276453588934 15.775820720244342
Bi 16.809729866124844 18.92229863218068 14.657470993840867
Bi 13.23985045277574 17.155287672455266 16.5044171774541
Bi 12.89790413269134 11.459734144277832 19.982353090065544
Bi 13.988287060135946 11.612520331015055 15.647758088690301
Bi 15.835654270178516 14.795583329160475 16.12154458577916
Bi 16.156106554541573 8.189067823426429 14.941245201873752
Bi 19.968727602095292 12.141333647433155 10.894968683779643
Bi 17.17334655155638 11.704911702868511 12.104946180664669
Bi 14.30647261834012 14.95870903802293 19.027011937574468
Bi 14.7845436422302 9.95882447284414 18.107520158008775
Bi 16.663815445500138 16.83759416495973 18.274695925242675
Bi 18.927023240638153 14.734626995991105 15.119859572546545
Bi 17.403769864518715 12.687967129258597 17.94130261077421
Bi 19.81177066628605 11.855197278724846 14.648058237695784
Bi 18.088766715715362 10.05942180837025 16.492980245108033
Bi 15.58757942087318 12.7727009275511 20.612403286394574
Bi 20.42938822626331 13.29796912998024 17.274876769273614
