50
Energy = -181.96199749 eV
Bi 8.178180019895708 8.349868735874042 12.353778519577414
Bi 9.056218239114079 9.363537373894696 9.573497854358513
Bi 11.915989579720122 6.254564793124609 11.373356647785908
Bi 8.044588299368796 14.274493552813055 9.129391145033962
Bi 7.788415653873283 15.985136104394037 11.762376766636319
Bi 11.431326362776767 12.19766956805844 7.815537876635317
Bi 7.419014480769636 11.172418920175604 12.957810444439145
Bi 11.89432208237211 9.259624046041461 10.66195003727065
Bi 9.564523467768273 8.744499885558845 16.060938407429617
Bi 14.503779693962484 6.05718147173141 12.955506788788902
Bi 7.902146743677683 11.243829425696768 15.959016643666669
Bi 9.956708811985076 16.657188478093396 9.018578198680437
Bi 10.420582004724407 10.148951227790592 13.453843900784708
Bi 12.33869177288798 14.694147095805551 9.28294970431139
Bi 11.854298187062621 6.1888885768310935 14.422955528262792
Bi 7.106740911696949 16.492728401554235 15.085764035685687
Bi 8.761601822002564 18.70584141759887 13.424755865944457
Bi 9.865994999232717 12.207686185119186 10.468863496682406
Bi 10.80786784737424 16.760431501662026 12.060077893559273
Bi 14.471594517966178 11.783411029782215 8.258998227670853
Bi 16.22403940787004 9.425154711634633 10.833066756329439
Bi 13.611087725813064 8.68667973596836 14.216673942712747
Bi 9.134866076664897 14.278700596024738 14.575842530309885
Bi 14.929683610396626 12.166247015086656 11.282200561228104
Bi 11.834043069413703 10.272822826195522 17.61847902644227
Bi 12.596416038433063 12.376350637811484 15.552222065610344
Bi 14.725130093348469 14.737621751289259 7.371762679790584
Bi 17.482453559487304 8.909778217452573 13.548852979682678
Bi 10.093592483967848 17.086974727339022 15.713993835722679
Bi 14.333586599469728 8.490784536945872 17.17179766111341
Bi 13.766789425571927 18.650455092960488 9.90672490831918
Bi 13.581337426620829 16.35753774416348 15.024364018542576
Bi 11.601778374123269 19.779906022963704 11.81086928902983
Bi 13.350677583225108 19.38463582708112 14.288385187271746
Bi 14.04112765294814 12.920893203459 18.144925658375456
Bi 19.2800588163499 9.767774578772489 11.224999916916424
Bi 14.633072182226517 16.192329902139047 11.51238700506985
Bi 10.571741219960224 13.695942932364693 17.40106872122008
Bi 17.489303064601827 13.077471965041086 9.95336078158053
Bi 16.612126091467758 11.66405506961292 14.621860353910069
Bi 16.32266101504608 10.793580103074245 17.535893591175654
Bi 12.550416264212819 15.987863809696908 17.871453138607773
Bi 19.615960645806634 12.151342568659672 14.77353802856865
Bi 16.2063242221024 17.523991309596568 16.113127864981696
Bi 16.73142516894118 16.016188332785465 9.326055070460765
Bi 15.669838722363048 18.957545187067673 12.306238804303026
Bi 16.85512665247287 14.602368052818852 16.728034358297364
Bi 19.892443490133413 12.677773871672462 11.801911718086298
Bi 17.409622972366495 15.745854372398068 13.943523990555203
Bi 19.75113551859533 15.051266261567267 15.759886037035175
