53
Energy = -193.05038067 eV
Bi 14.31373778034004 18.642188780847324 12.126162913340643
Bi 11.966423266519051 14.561278720097553 7.828898587439658
Bi 12.665371426220009 12.166093887616945 17.57900949233573
Bi 9.779900286523409 5.8050213344249695 11.2498210818901
Bi 9.000063636052879 16.178499434571897 13.108363262879466
Bi 15.771010433908131 9.787940370740106 17.835420032630935
Bi 15.39543546049665 12.673825475106902 18.84421763458851
Bi 12.400455986526135 6.9605421500160585 12.29301321852176
Bi 10.549698453330809 14.058848228444933 18.757561382294135
Bi 9.937065229180492 16.585732222065694 17.198724511352395
Bi 14.275029050634913 15.889746085636475 17.350393457246078
Bi 17.454289828936304 15.772696285737021 11.238759041102485
Bi 7.842467613469719 13.195800785254269 15.598121482890926
Bi 8.059862304012716 6.750112150946746 13.584874104392041
Bi 16.69287536754427 12.758161286317561 9.621769972328517
Bi 16.17058236527285 7.316625452420305 8.934184827224474
Bi 9.749174441092583 19.054142742801407 12.010031403492619
Bi 14.983588934146127 9.99172662610783 11.997019852604115
Bi 16.483075679513938 18.512705177953425 14.368731575582462
Bi 14.909882949554635 15.59209643486536 9.276046477844142
Bi 9.195763781120636 14.946462767362357 6.598955002648944
Bi 13.393144523197952 9.22186320848012 15.84102901738018
Bi 9.872160169655508 8.700874966588811 15.167105729633155
Bi 13.418094623086086 8.416567938621222 9.82606361274332
Bi 15.683300215447101 7.980740601627864 14.186090390157736
Bi 13.947284387925109 13.219098773070401 11.036307396681579
Bi 7.202893917384872 10.200218292337649 15.375140464287723
Bi 10.860370033409257 9.722334483183248 12.449040886095865
Bi 12.204664353112122 11.717842108421124 9.04212309996407
Bi 16.536731470044906 17.33618468659161 18.787296660344566
Bi 18.62077205327054 16.312792995410096 16.845962376050117
Bi 10.057409497003766 12.85559117177691 13.550245298707614
Bi 18.1634378565249 12.99047366665726 12.278828225272855
Bi 17.663273941486548 9.341827708061395 10.641089134691407
Bi 13.19072493705344 11.994985174940753 14.525444011041648
Bi 16.249876492931286 12.696533998140435 14.676733006448465
Bi 14.301389698121756 11.219122798722637 6.870852688571224
Bi 11.058166902929273 15.185785941566715 11.069152827264299
Bi 18.076550955556307 13.37788839656768 17.487396034285048
Bi 12.0962164171913 19.196896321352646 14.139943341426003
Bi 14.796862065260209 14.176765385392027 6.4901651142027434
Bi 12.113533446570623 16.58532610307818 19.359566222476527
Bi 15.21259154515664 15.963214190177746 13.313831049588211
Bi 17.61006228588669 10.047841495439334 15.392285242078808
Bi 8.440841640975895 14.515359028310863 9.489093159742302
Bi 8.334550769825047 8.498702246251437 11.136521155348303
Bi 11.492594883242257 18.02810925438185 9.785064637280499
Bi 7.154464133684694 11.942609911990905 12.920727016349574
Bi 14.452651136953488 18.866114622436392 16.577746007477533
Bi 11.623655773596667 16.20892179865712 14.711497990256506
Bi 8.788980931866535 17.36430618858246 8.43489805383328
Bi 18.82418348285828 15.337921133941137 19.713528679005247
Bi 17.034102217835155 9.945239291166416 7.678601601914841
