54
Energy = -196.35706498 eV
Bi 8.436654683381635 10.160502431927567 18.432107893178053
Bi 8.397615820840693 10.447018155392 13.816348773862016
Bi 9.524554118047035 7.9785218717493205 16.5385908644932
Bi 8.653300907854653 12.336931162647145 16.25027612812125
Bi 8.592807789945272 12.915973923699433 12.037824983207043
Bi 11.085304819274858 6.857255018345377 18.882915748212838
Bi 8.975587938750461 11.594224037308575 9.370305460332004
Bi 11.182368628458338 10.113000495635632 19.769511180355437
Bi 8.482369670400107 14.725831210482108 8.580797574002704
Bi 12.067639084165702 9.61956403504232 16.884765954028296
Bi 6.779555653058627 17.198966477245428 13.99109516825742
Bi 11.12435469515307 9.109877317859993 10.323643817048303
Bi 11.355440930573366 9.838815476702793 13.25773002674278
Bi 12.200176676385908 6.878653691043777 14.00503997456443
Bi 13.913908867180014 10.267130703589341 10.576621401845712
Bi 11.65290486521515 12.681990755819202 15.9097810462012
Bi 10.474642269732596 15.94940752405733 10.587129072032743
Bi 11.809208700140987 12.361064199264836 7.854972444411637
Bi 13.386995640881535 6.774364355822132 16.88692559521237
Bi 15.92501246896 7.886516860726061 11.11793188113025
Bi 11.581386939223874 13.065252444805598 10.909410850576258
Bi 8.525087994730088 18.269022430789338 16.191570010875385
Bi 10.660166807995836 14.862388872699823 6.4727021332734065
Bi 12.408011016189185 12.99840012534983 18.779346494839473
Bi 9.518386315197036 18.313205024094703 13.30009782902666
Bi 14.6765619193456 8.697680807785122 13.922692373278567
Bi 9.276042873750523 15.666422524576262 14.821304832093402
Bi 11.787278980005862 17.186966142363158 8.124274950755638
Bi 16.86630166279801 7.764498685675085 15.740855868409529
Bi 13.633857176027442 17.845407281207983 11.929183471901169
Bi 11.82967379672994 20.08473237600556 10.877196089848692
Bi 15.225162193928348 12.386045794449219 14.792224299040184
Bi 13.87289771548689 16.247513138076062 18.248654877731184
Bi 12.378927396206443 19.01123492615999 15.87379461939846
Bi 13.062094887831075 16.020330697559178 15.312829039956524
Bi 15.109627325019417 11.841603094027061 17.874406309613008
Bi 18.335002606294807 8.718624804833366 12.91130250877609
Bi 14.634013101700779 14.34103029450469 11.485893710564907
Bi 14.840333052121961 17.421553785697505 7.817223334066681
Bi 15.041784262472952 10.856124710410036 7.821190581867809
Bi 16.863099084307105 12.130429890091776 11.2875431141643
Bi 16.409301699562413 14.57625386540213 18.391561718335826
Bi 17.741656822394216 10.645728459393306 15.181932467866774
Bi 14.57435730811043 13.808502118236033 8.415436488485074
Bi 13.586883468181595 20.45113209484414 13.427966289262583
Bi 17.73110851459359 9.599543786079789 9.091733201976462
Bi 14.718197214757527 19.761339422752634 9.848119479771357
Bi 15.291678278351643 18.664321504407948 16.87540969897597
Bi 15.899387368335354 16.949289647521145 14.405399611348395
Bi 17.37837024196595 14.502663903745137 15.49143183090921
Bi 19.550088685882073 13.37054232726586 11.936418114393197
Bi 16.585799943127 16.306570845989103 10.147150463945135
Bi 20.05299748748847 10.574539311261303 10.788302371629678
Bi 18.292981195225195 13.83895495728677 9.188029125290052
