5
Energy = -16.11508897 eV
Bi 11.209393691359649 9.256504859132496 10.324264924748196
Bi 9.098436918891366 7.391477411581632 9.230869730852787
Bi 8.73096925306562 8.056513522225051 6.315518712993813
Bi 8.551325648450984 10.30567673864491 10.565823743144245
Bi 6.9231330155230975 9.449874041196857 8.079977477039746
