54
Energy = -196.7178872 eV
Bi 17.221627618455962 16.479892438733557 8.950123290055556
Bi 13.327696124301072 16.004647934255743 7.179992916846174
Bi 12.437357339902748 18.99883473737757 10.96513581336542
Bi 19.69275869771485 16.624450310165884 10.783102466528323
Bi 14.38218510436579 13.523296719591462 5.743470171952588
Bi 15.20363077186678 19.289094326842854 12.214930273171298
Bi 19.085178254683925 14.102860664803693 9.182412118701926
Bi 9.577943113190946 16.540246945603368 9.4997422850008
Bi 12.714078334163261 20.350855677072012 13.660675660498844
Bi 14.574274308438152 15.099251425825182 9.860988306933509
Bi 10.771728876653777 14.464584455590597 7.593411256803676
Bi 18.432291463670744 17.103288222157428 14.588037039529798
Bi 15.468437844019089 16.72816494689901 13.89558630859217
Bi 17.212713135054518 13.754866420411238 11.626114717085802
Bi 19.68106922257722 14.711966216009968 13.225758748884935
Bi 15.766828089216883 12.657522258396677 8.343861110755261
Bi 15.109197445617957 18.722643736094028 16.193761293413147
Bi 8.964184750989208 16.383144027005077 13.347436067181434
Bi 12.098393605630323 18.38831454854821 15.940851989297926
Bi 13.27996483217898 11.192618609232051 7.409967477631705
Bi 8.857353704494098 14.148408985827507 11.31396596182174
Bi 11.653114417026186 16.173134128144223 11.75961096900352
Bi 18.48438117199524 16.263521069479904 17.524654684186885
Bi 9.258452541766111 10.902289054317043 8.655955088532917
Bi 11.690647519286593 12.447237881982186 9.703955803887737
Bi 19.784585672385944 13.527961838088366 17.105539890690697
Bi 13.768713820290591 12.346505211604784 13.138025954368308
Bi 15.684153092492258 16.980773640952272 18.667526987038446
Bi 16.093041399502372 13.323973319745052 18.503928612056566
Bi 9.399858335956834 15.162539846924433 16.134691931884113
Bi 12.402882903860831 15.35258828312483 15.400376565246805
Bi 13.364090494423968 8.775822954731677 10.194401169115588
Bi 8.785836472026144 11.530100253886738 13.446728433551044
Bi 15.785844693707807 13.619360023500706 15.448485062974616
Bi 16.09412992376759 10.87359809874175 11.970388018374466
Bi 18.26303527538936 11.817445631847168 14.998076102041479
Bi 15.136391667935145 10.407603914904797 15.177267378217502
Bi 12.952128682630601 15.672980680248848 18.393507636449865
Bi 13.190409911793568 12.75801092091951 19.346522017850024
Bi 10.66009856440194 8.157809616377211 8.784611557467086
Bi 7.5288769087906235 10.118436044918706 11.037079788281305
Bi 11.71955174776022 9.713617788847392 12.622289726607647
Bi 6.284229588191593 12.703456305838573 12.087095954648955
Bi 11.860259955579442 11.716822840149403 16.82775338348583
Bi 12.71725289908722 6.07312977886959 11.580415296970699
Bi 18.196003546120835 11.11612630021647 18.0343609703806
Bi 13.356443750681017 7.6911931056574465 14.194848194364456
Bi 9.631195953874277 11.0332288096718 18.72614471897877
Bi 9.93415637633057 7.331835103074291 11.625730934854824
Bi 7.653645709522432 12.73172843818935 17.07644975906841
Bi 7.025735469178262 10.193118353272967 15.482613526878987
Bi 13.423570489765595 9.314480739581018 17.746569335677865
Bi 11.569135069669564 7.188516230587307 16.617702149266325
Bi 8.83817622661285 8.472889259784779 17.24513965823998
