5
Energy = -15.5747307 eV
Bi 12.433460991146577 8.71209972267029 10.296524221318354
Bi 10.291329569412165 8.102736673552197 11.999301846127294
Bi 9.993494413393188 10.528920668197122 10.198495976045967
Bi 6.798676916749195 11.375068689987797 7.546031765619826
Bi 8.491389346501798 9.198861330944741 7.919615533544886
