50
Energy = -182.42036295 eV
Bi 20.457458716626736 14.972896842044916 13.616156055324833
Bi 18.021232340161223 13.502521452746622 11.164831266156826
Bi 21.40121201845408 12.144232603728236 14.320170080987591
Bi 17.272765810547924 16.95976885278423 12.712376504790893
Bi 15.77387359875425 14.700103660521028 9.328193249064292
Bi 20.645738201277528 14.126190705309956 16.500567315747745
Bi 14.853612494119142 11.038321011973945 8.92096918857568
Bi 17.603027362534053 10.503666426444266 11.700474497441627
Bi 16.54276710526128 17.64152168167037 9.800456003213545
Bi 16.091836108983664 16.884859018352866 17.290491063835756
Bi 18.584508632049268 10.935363002377157 14.592643507038893
Bi 17.914778003048202 13.909172714924228 15.067938107986723
Bi 15.439543835199611 14.472177175434094 12.383275215568036
Bi 13.53425208190259 12.060037652956982 6.297733297318084
Bi 14.099011668066183 7.893449920345037 12.107997135086121
Bi 15.075309028771601 18.8881088921095 13.69515773666879
Bi 16.31601499199903 12.058507579473051 17.552698494144735
Bi 12.371235455731671 14.305231192743028 8.029969955079567
Bi 12.77176073641194 12.615121598093387 10.577434469092001
Bi 12.130829344125917 9.766306101839763 9.62871375153618
Bi 10.967504302744178 10.453426297853923 6.8604239836309
Bi 14.833574857484129 10.79908424736449 12.959167639599022
Bi 15.6509332314337 14.55763840502421 19.228357303915868
Bi 13.835027432664832 18.65601087918228 10.884990835753849
Bi 13.996619448420022 16.387290395480832 15.115674787625883
Bi 9.661612215991447 13.185451570113216 7.186049772495439
Bi 12.640605281378795 14.492500242731136 18.507006309193677
Bi 11.361818087538033 7.2996341975055445 13.410563995060812
Bi 12.13706295551417 16.248258325837504 11.718420329644207
Bi 15.4486543212953 8.416227875798658 14.822297142721318
Bi 9.693333197908675 16.40906517200372 9.796105574615986
Bi 13.090787007732871 17.484241539345316 17.787912868401865
Bi 10.757449149068938 18.397120918890028 13.402226221227215
Bi 13.65610976404633 12.824085160486602 16.11689096729161
Bi 9.562723426764974 11.73335094215705 11.763972119395765
Bi 11.44646919626855 10.144863914943857 14.434945455970432
Bi 8.885986794263086 7.262396361602975 11.609598272145867
Bi 13.62449013763371 10.906671448216496 18.45764706339103
Bi 8.571314542151956 9.662893483389947 9.743079142401175
Bi 10.883530218866246 14.057907697051848 14.249764131738294
Bi 8.22649801082036 13.743986938826783 9.835406334744375
Bi 12.96242342384043 8.565413419666942 16.5937000783056
Bi 6.831813976793535 8.414283438321517 13.5532809828271
Bi 8.11585851723716 17.4629827432164 12.18385166467599
Bi 10.177337529300322 16.55153535879112 15.822967666992826
Bi 5.817526473881113 9.948670255454475 11.153884948404515
Bi 9.557639043604482 13.069457973496846 16.835612898012442
Bi 7.030496736917776 11.546563682056139 13.555251182695514
Bi 8.90960051992046 10.273261063019742 16.034886513517137
Bi 8.000924342780966 15.042631468332798 14.171206527303998
