5
Energy = -15.46459846 eV
Bi 7.67056632589468 9.863943682852769 11.951483452963616
Bi 6.724907048928114 9.933562406640968 9.35354250048021
Bi 8.948041530227714 9.040302151459445 7.410864284715643
Bi 11.618077808789533 9.921188649430674 8.501775139666949
Bi 10.906105495127656 7.22969049320856 8.832345608374375
