54
Energy = -195.73194133 eV
Bi 15.033555079235947 7.314439820727566 18.032463058567952
Bi 16.812589608824748 20.69113892541164 18.59747832832107
Bi 10.868535604172516 16.665402760925343 14.438587097407732
Bi 9.964532916502625 18.211779111345674 16.887429450725424
Bi 17.59155933860241 12.307444660395479 14.742194724451577
Bi 8.574852641900243 15.571920007231112 16.20320770789739
Bi 19.608133387262697 14.880658343925793 15.365589614516733
Bi 17.939203997362664 21.668124128952797 15.476482320653927
Bi 21.103539162545772 21.235990669623565 12.53765808480047
Bi 12.114397804042785 20.33194562176801 19.09329057434407
Bi 20.00421459175233 15.63705897059377 10.23141406524455
Bi 17.135569463970665 16.725896937493175 10.404791965299967
Bi 14.34761298510631 18.65349363717349 15.129388877779805
Bi 16.108330264899898 15.0559818346577 18.612955623504938
Bi 15.759991534680257 15.173839939948497 22.482584409214805
Bi 13.55214364788898 14.927806046490277 20.392648732449796
Bi 18.59271322652576 18.440596690396955 17.684990745210396
Bi 11.724123441986523 12.573946141678046 15.07802174970562
Bi 20.55260614735864 20.12030044454843 15.394820934927651
Bi 13.23400743920582 21.72684288980116 21.497807376599127
Bi 11.068168973883518 17.009651611030737 10.51193403022376
Bi 19.95323283657416 15.06061555545574 19.055148573118103
Bi 15.806580845643895 9.879846938707407 19.329101565630687
Bi 11.92598878700775 14.28693567675056 11.820071942470562
Bi 14.4675662530385 18.3482438384139 19.12561282518271
Bi 16.641998897680384 16.78719752989035 16.024679938970195
Bi 20.501204791046835 12.581867684600674 20.692924080080942
Bi 15.099784140879377 12.039782641391794 12.709511577194922
Bi 13.583456777695728 18.50217783965034 11.330203824728736
Bi 13.658566540257695 12.049678558618286 18.016085832851445
Bi 18.337939464192853 18.01169777195355 12.90208407092193
Bi 17.770470664669784 16.73598819232315 20.50762811205618
Bi 14.392840684990665 14.161156138647419 10.036763306091862
Bi 20.958636411984962 12.576991835344204 13.771510110526181
Bi 12.325121456916424 16.21109324431726 17.13232786437223
Bi 12.642546558853843 10.236463664148388 13.458510596086127
Bi 10.188229889449191 14.440565169622612 18.550868729203806
Bi 16.268031233287914 20.256906638985853 13.302712749935838
Bi 18.384624016160757 12.428903373152169 18.459616161561687
Bi 10.666695752505145 11.52578571609956 17.73132047187583
Bi 19.397771233111055 23.549760598401857 13.45254835772906
Bi 21.43063008861453 15.462988246460533 12.936050127831205
Bi 21.957332258778187 22.86750332650295 14.910027834581905
Bi 17.01832675877855 9.25613127573955 16.64014225021123
Bi 21.246764324843568 11.375281223610587 17.999027248488197
Bi 22.309337185062265 13.663341330496946 16.275312007055092
Bi 13.533640354219594 16.93909708324473 8.742803627043532
Bi 15.644411346064972 20.05631095522815 21.583531691407526
Bi 14.219788618035247 21.11993003057392 16.99276612504777
Bi 14.494929063168819 15.74049278339061 12.661893114911233
Bi 19.525503897236153 18.63316575308458 10.1475560816383
Bi 14.007892798008173 9.565351487966765 16.161256840714344
Bi 14.93046664622233 13.710307484022307 15.272917283325826
Bi 13.844871317080838 17.472484147802078 22.210488738484568
