52
Energy = -189.97766639 eV
Bi 16.592830767248344 17.593161940940167 13.80545817641811
Bi 17.931476995641823 13.307985205260225 11.657172422884468
Bi 17.32157595531294 14.815804193651127 7.634041974322211
Bi 18.03438730052566 10.370548675363484 10.863915692960216
Bi 17.954973609635488 10.0744331409725 7.800766365397697
Bi 14.39976243840013 19.634990401326295 14.168946284895213
Bi 16.455143926287494 17.151078378744373 10.448227437078094
Bi 18.48328607636146 13.708458089635732 15.606230275181678
Bi 16.609883322762663 17.108623534456694 17.06570710390058
Bi 13.875001964758289 17.24409046218659 12.339817783204147
Bi 15.872385335076423 12.744962927933152 13.944067824432029
Bi 15.082508012904269 16.375629020937588 6.280868103737251
Bi 16.205020757485432 12.190558062298368 6.457798790721321
Bi 15.415759982679958 6.975513913018423 10.657022007277341
Bi 15.550936786479031 14.165629461125395 9.991140448823286
Bi 14.074049022172723 15.472908521834059 16.36071565421821
Bi 12.590820583207826 18.157071698435164 16.175509629622464
Bi 15.011020707150609 9.961889715636495 10.988443610535986
Bi 17.47140996735838 14.414135642537257 18.3593192044918
Bi 16.680992617455168 9.674562575708872 14.23193087271585
Bi 14.363969509905958 18.676917043468805 18.58302519603586
Bi 12.439102425262968 15.721293260629437 9.470332827555358
Bi 18.107493213332678 10.862469254374746 16.683658030383896
Bi 15.20910286223403 8.731774139118116 8.158202644061227
Bi 14.210868929155582 18.169150413289106 8.64387640697221
Bi 13.004403227728021 14.319910037347576 13.090085590623707
Bi 13.738851807791477 9.872495843541364 18.26510889374291
Bi 13.718282404931518 12.03817943114019 8.151595943490987
Bi 15.481091901268641 12.252085811518421 17.260265151344996
Bi 12.666150142894429 14.514233164516138 6.678910082807205
Bi 12.42426898186579 6.6936533797739655 10.031860111599489
Bi 10.07663500973019 13.08713301520163 10.578233359742308
Bi 11.483380605473691 9.616274860105197 10.19988149556528
Bi 9.442121806069636 15.335867360841117 12.556059786024948
Bi 13.575732989715002 15.84431462667356 19.400993516310162
Bi 14.600105413450684 8.165262577802558 15.904933676987493
Bi 11.046295510261892 13.545011029187348 15.445276950750184
Bi 11.78757094786781 12.899872685999895 18.394177804080623
Bi 8.9136652286196 7.960602252369648 10.321830847570533
Bi 9.626462939348462 16.046213732599195 16.49515267024058
Bi 7.100197323961744 12.321837536227846 10.222211802585313
Bi 12.444483229904607 10.28087725208309 15.493074734650659
Bi 9.382533043155341 15.88524918929263 9.563525474215417
Bi 10.998683988252507 7.7485787440385865 12.524282922839626
Bi 9.122493602241871 11.129459829905667 13.675927962469647
Bi 10.523465787235091 15.550101331852193 19.37904034456204
Bi 7.483982552786681 13.89025906722259 17.139303366784265
Bi 9.062177534296977 11.520861593296814 18.283475330414966
Bi 7.030279172451379 9.77145759912546 11.923240874160658
Bi 6.468602871103072 14.412484293889618 12.40678917194839
Bi 9.572144278172376 9.364848730488252 16.127284157377066
Bi 6.551284685587381 12.380534916497819 14.667385088969429
