50
Energy = -182.28894732 eV
Bi 7.940970109781499 14.114391511196777 18.16741788176615
Bi 7.5487628582786845 9.853667662706439 16.27917869294472
Bi 9.54371110531963 8.802837222040985 14.26850966749313
Bi 9.925828545985887 15.473725251527664 16.262867088241293
Bi 10.941566251838207 13.185846729891658 7.029938321017946
Bi 7.668438849000894 13.950445820542118 10.46159805482094
Bi 9.573228662090607 11.532000762824909 17.896696531785107
Bi 13.709154768643572 10.712688653454869 9.82339812363841
Bi 11.986645423798224 9.52174542803822 15.687547164540106
Bi 13.911577126743932 10.678103618594564 6.757923560324322
Bi 10.547137641497073 15.37102072672777 19.225895363255965
Bi 12.414696838812771 14.279819375753094 9.463597624664951
Bi 13.630861996440336 15.27275246433816 16.28268873641837
Bi 12.290395402673703 18.586923649375635 16.762489873820503
Bi 16.00662362586386 8.693612439112908 10.11159914848251
Bi 16.819403088883625 10.04148679326542 7.477367824328259
Bi 14.978072979456702 11.656316529845261 13.394843114129296
Bi 15.520954216351246 12.71942158494145 8.292212530648944
Bi 11.323325752025113 17.111395474145247 9.76692719590544
Bi 10.362669637376587 10.496124809153486 11.169559021834738
Bi 17.72762040515805 17.76450252802345 11.42290112055762
Bi 20.349276356018596 16.265866063060447 11.314531196400413
Bi 18.582153119049458 9.386962944309218 13.87005432431579
Bi 9.986563984215897 10.509020899805432 8.106791408513054
Bi 17.38321514354716 10.97312072657884 11.562924345952318
Bi 8.001065570759975 12.76110902888304 7.705684325300491
Bi 15.595915143428252 15.514572212763673 11.24036647093073
Bi 13.885140546627186 8.824492651854351 13.375168844932517
Bi 16.527435841470215 15.597163517682723 15.228305464373548
Bi 20.247905534808353 15.71829646320284 15.254618129284752
Bi 7.403491078710003 11.18875287898322 11.731907852465767
Bi 13.313644539376526 14.662426615034779 13.226944402182747
Bi 13.971594763942571 18.126416821534924 10.884562770340294
Bi 15.97243982884025 9.608202624636968 15.483609102539292
Bi 18.751266472506067 14.14660760529972 13.087557330550066
Bi 19.945970268967933 11.953371318173135 14.895295853842434
Bi 14.19050941962479 20.980353287493827 16.938076360471985
Bi 14.708576138768617 18.81904963945916 14.871610399690262
Bi 10.816229060555061 12.613879108808414 15.252504617295587
Bi 10.45788039142355 13.515428618717753 11.659550790135679
Bi 11.743744654540496 17.299567101063854 12.807887988997285
Bi 19.844422494605176 18.23035725653675 13.554655203075244
Bi 17.489949753171302 12.869906263806831 16.50804910091253
Bi 14.057731352555274 12.45225206906937 17.423881402984975
Bi 13.883624456034873 17.442536977034496 19.17584204617047
Bi 7.798817793783053 12.355261812641558 14.571994494858718
Bi 14.870169892041604 14.505068958923244 19.590617062431164
Bi 18.334846016066628 15.573572468373586 17.68986457462572
Bi 16.189833260781672 18.697819959214975 17.579485692526223
Bi 12.235637962496797 12.921084540373231 19.868968686249822
