55
Energy = -200.36095655 eV
Bi 6.542905057410033 12.860268269853439 17.94757785792649
Bi 15.646424941546973 12.973480987146436 11.413002473353632
Bi 15.541020794360763 9.67443584348141 16.68086538116804
Bi 11.053073796841158 12.108364296709112 7.530918415871754
Bi 16.24839841648444 13.419462008767036 15.999122376258404
Bi 15.324005731846702 16.99702030758788 6.72075532374375
Bi 9.794310030705867 11.901721070131469 13.48098035253699
Bi 6.970280526361776 10.707556569403971 13.665535635788249
Bi 13.460215271457464 15.581646166854604 10.630240761911434
Bi 14.638929251664369 10.751127964605296 19.401471154727634
Bi 9.564166335584382 12.82472744849148 17.842692840854134
Bi 11.568365884871525 15.249883056364512 13.143997183605709
Bi 8.690855351558133 15.572180833699493 8.785573370155792
Bi 7.535284979417042 13.095243070776835 10.123046153787456
Bi 12.32480640210294 14.761614652387843 16.56772378538056
Bi 8.944912140262927 16.789960337353854 13.060794700268941
Bi 15.629315036095708 13.952290725830556 6.869231561801772
Bi 18.638171510431462 11.685321307664944 9.251839006170545
Bi 15.487716226017161 11.089975099078627 8.938334576822943
Bi 13.305884892161153 11.645157866987892 13.202629343588162
Bi 18.712365692537766 12.747068004387646 12.137437442123302
Bi 16.543455006979606 9.786504824617625 13.03339874842446
Bi 12.899043556055135 11.20972188187278 16.945845054417397
Bi 9.12593098573724 14.060472429275874 6.163384144383092
Bi 18.702354944463426 11.660174751050645 16.685605449501907
Bi 12.509006006200515 16.89639713771335 7.977480023853194
Bi 6.946906019690562 15.849376574966533 18.20285496912931
Bi 16.608652801850624 15.683150727631284 9.212607144283767
Bi 14.794377849296891 18.102320510492657 11.799533065524448
Bi 9.50459254965804 15.259336152196443 19.78924819361528
Bi 16.59105414943568 15.992984989601359 13.181155723521435
Bi 12.765902017253108 17.970815532091827 14.07783204133789
Bi 13.387846915334931 14.64514077091528 19.499126194343862
Bi 10.1402973947398 8.906095440644506 12.927619791344497
Bi 19.37831864874891 9.18456515061171 11.974670850659619
Bi 18.92185259246442 14.729283688081125 16.70913665688737
Bi 12.848594363451854 8.181648656181824 16.722523822476674
Bi 20.25463473049023 9.751905007483122 14.834342285500298
Bi 16.1537985616941 13.408294013375057 19.06532817992706
Bi 12.156718585546713 14.547572278918837 6.0728637179422265
Bi 19.2396844671486 15.71545675991523 11.563023674133328
Bi 6.628919076595545 15.135577441734748 12.168058339401114
Bi 10.537776279884225 13.549583345572461 10.18216617536313
Bi 9.124446279610229 9.889289120666675 15.67829972368183
Bi 10.853165249814825 17.161484758692048 17.789489965740565
Bi 8.390597694812412 14.884550305816793 15.608059340265873
Bi 5.847483373887012 13.310451144141446 14.811349747169732
Bi 13.689489873841994 17.620948953083197 18.907346382757254
Bi 15.179630330325669 8.503383317034515 10.569422516912852
Bi 12.689011928684948 10.355197970833878 10.5122972231319
Bi 14.680565889823749 16.687525795283427 16.11804599367898
Bi 18.292817343147576 7.517357289281332 14.279255024668183
Bi 13.107474454151614 8.554148412439538 13.677863067555919
Bi 19.276041630707933 16.736072335886465 14.415938738295939
Bi 18.636271358046447 14.192827823626736 7.479179511618974
