53
Energy = -193.14976335 eV
Bi 16.512443860599326 18.192203909775674 19.504644199596854
Bi 14.28053232436022 16.2688323863346 18.684374146886142
Bi 15.856204644576412 14.653346082829147 20.71388480536484
Bi 17.63574759227249 10.619105825164477 18.63736188596141
Bi 12.356251255909086 13.509619019232433 17.562625200711782
Bi 16.232137473216305 20.115102946717617 17.142938473999923
Bi 15.008579762325448 11.847699759672611 19.56557205734465
Bi 11.276365467896433 16.692311815330267 16.004742062648983
Bi 18.38826564950988 18.79580035546084 15.474594036527838
Bi 17.17370497321853 15.560157669638873 18.13986161564106
Bi 15.89935813886588 12.125240487398733 16.65379308906094
Bi 13.777035689001316 19.88007966722653 15.192260631262807
Bi 15.215420291491537 9.243130779405702 17.343238434379803
Bi 12.946032658252667 13.413557273412719 14.583867480638178
Bi 9.236672026159408 14.165807507308825 17.80232412283328
Bi 10.740392998837791 19.700194341069956 15.826214032185947
Bi 8.832546224130297 11.340551613510309 16.697477238236512
Bi 8.636883331134088 15.510236211476364 15.137694510761479
Bi 13.499008795753742 17.045922976104166 13.802983205022985
Bi 16.64731148641916 16.441121140619714 14.58506418887912
Bi 19.010268682466023 10.238482932457634 12.451266892533338
Bi 11.501332320735276 10.506608286485331 17.942287632058754
Bi 16.5437793867089 19.194377065119976 13.05989056838375
Bi 9.956176536141767 12.822169562695864 14.25068037559203
Bi 17.703577456127473 7.505198404064912 12.445043327110904
Bi 11.88270554089927 7.0596842820426975 16.476869045576716
Bi 9.184329777374817 17.17269906100983 11.768801554475644
Bi 17.778096930477044 17.849124048976584 10.578798306610931
Bi 16.12039708612107 11.083715882898945 12.907826105785254
Bi 15.065268430841984 7.904722999734746 14.168994445701777
Bi 13.154498925712831 19.597669474120767 11.94933462764252
Bi 18.114721910831097 15.19667508352312 12.117503286080472
Bi 12.373015724595797 9.905202801179973 15.072721456226773
Bi 10.228304850920983 19.858882139786463 12.798995576208748
Bi 11.534170237631043 15.22449516171214 11.38809624500048
Bi 15.391616199545046 13.84556118625843 11.624231144784698
Bi 9.229357244950522 13.54906501493881 10.116382698175842
Bi 16.94155222971998 9.586445945573006 10.34420068596793
Bi 9.825293510310662 8.259754444133725 14.574636502899722
Bi 15.598602145233093 15.496143220612696 7.378830047464201
Bi 12.608893184782415 11.173381001250277 11.468754561614777
Bi 9.608028536476914 10.986845172377546 11.781279565396446
Bi 13.161156195359201 5.396570562945552 14.249803247141495
Bi 13.542101128846191 8.225729793440193 11.489137824710161
Bi 10.607813487504723 16.99087451308979 9.051403921117803
Bi 14.917195697661077 16.94924082723425 9.973175473464371
Bi 12.88012492550042 19.035242520991417 8.96862315353872
Bi 16.82111545681911 13.15946619804969 9.000141851630012
Bi 11.109652317929696 6.593509703041237 12.321226079631847
Bi 10.568818611295429 12.510316335191632 7.554442252927614
Bi 14.709330984875372 11.562735169317834 7.311922354677864
Bi 13.201910277709764 13.837965962169081 8.457633267234328
Bi 12.26388888653126 10.137747317388252 8.616027867890553
