50
Energy = -181.32959728 eV
Bi 19.163766953832074 13.668436600545741 9.981963220598958
Bi 16.22916905252118 8.283356934101798 15.919422234018432
Bi 17.847222679069866 13.479491088458845 15.428253868460386
Bi 18.121442202295512 11.604972146256472 11.962343579391993
Bi 16.52562387849394 11.334891407623633 17.202226058737658
Bi 18.97809154623933 11.722209141903743 7.666677169987064
Bi 15.961109943997021 13.6409166656026 19.484493003102113
Bi 15.633345673549215 7.240263571846253 11.320174248507115
Bi 17.6853852699834 16.28961359701516 12.178214619851097
Bi 16.858690591320467 13.937633067035526 8.00735034124301
Bi 13.840247926793374 8.559398273885407 17.829368501886712
Bi 13.618292710726354 11.773412099577262 18.004748600343646
Bi 16.876562731201638 15.657399897315134 17.355162583327395
Bi 14.99736097897423 6.06127713014362 14.036685487671848
Bi 16.103328890317126 13.760227837183436 12.93004220100932
Bi 17.271582440762337 9.8909505335807 9.548569447263567
Bi 15.172076020972582 9.721855275854912 13.361360104360354
Bi 13.633528874936978 12.305383628143153 14.857817231883091
Bi 15.4537530201275 17.466168340599182 10.35300181876741
Bi 15.09475461790158 11.451684985247907 8.138677451868029
Bi 13.371929446631754 15.23906716329106 18.767345852259446
Bi 12.911514705817122 7.769212253038404 12.59787717583964
Bi 14.443083157271476 16.11706534066588 15.503917445579878
Bi 16.13771375951754 18.167167117050834 14.001020286029473
Bi 12.084754642730385 9.674259954070108 15.62892641351279
Bi 13.528068387755628 15.180677096688427 10.66397703850408
Bi 12.2882719936818 8.774314091204527 9.13321627561919
Bi 9.51221873644763 10.591122654630365 17.05304178011474
Bi 13.809644071086225 16.241958716985014 7.829443158580478
Bi 13.05331220501499 11.471722773428187 10.446799705156273
Bi 9.714506667236519 10.13816984791338 12.272630780957183
Bi 11.222538862597329 14.7341238968398 16.383222506687073
Bi 13.248057150043119 18.43869351639206 17.18989297973565
Bi 10.631440902437454 15.025108914058167 20.188743244996704
Bi 11.776452780251596 17.511134035053114 9.628574389035146
Bi 11.125386091517564 12.858541999477545 8.53959384003258
Bi 9.299628456111076 8.980123938786429 8.496493792894194
Bi 8.355130873519714 11.88336916758432 14.48491657044474
Bi 11.03174686444706 12.737615794732948 13.14298405869398
Bi 13.237334902879372 18.59219261424372 12.643407093902105
Bi 11.128791362682385 16.268589688354506 13.253210498574767
Bi 9.614388614059195 15.080575083624973 10.778898938517788
Bi 10.480479840646577 17.237501776422725 18.004731502910847
Bi 11.277157298606458 10.343376256982255 6.6889853768800265
Bi 9.019826773012909 13.45580282985222 18.040180798997582
Bi 11.89831410813849 20.19381211854831 15.024071329753925
Bi 8.596018559937017 11.636948245343227 9.88602794197387
Bi 7.439856285278463 14.881884791583802 12.854561551038438
Bi 9.644786059991171 18.95126895825203 13.376771514608297
Bi 8.442536066443843 16.66140922038466 15.047564895553503
