5
Energy = -15.24509614 eV
Bi 8.081413943101195 12.440987069031259 9.59660281751488
Bi 10.77717770525412 8.964060362777115 10.921878739500926
Bi 7.918087342955265 9.516494248642262 10.062266410921449
Bi 8.86559533530695 8.598116942318704 7.3307752667568495
Bi 10.955088258995556 7.100243797511778 8.698097718004679
