5
Energy = -15.57505291 eV
Bi 13.147509552275414 9.234643381617515 12.383376063145661
Bi 8.754952842652806 11.293260983284824 7.894035161609758
Bi 7.516372879346712 10.711979326591807 10.342701123403534
Bi 10.490720163314656 11.332209317607973 10.405447347968874
Bi 11.471106457143247 8.465244981948645 10.2970048758427
