51
Energy = -186.10823701 eV
Bi 16.44947059165994 16.703394782663807 8.85787612071531
Bi 16.020740658259168 15.605568283788184 6.075267419095394
Bi 13.055593200443976 14.877919131894744 6.08669014258218
Bi 12.226382635940986 17.318280626539668 7.722347589294212
Bi 17.7126997909875 14.048242310823277 8.109266287132588
Bi 16.651767455955575 18.804222200860963 12.009747084016249
Bi 19.23712627523751 15.270995613412888 12.688054223475103
Bi 13.723788283203064 16.2493547688516 10.167999416294622
Bi 17.213628158602567 18.335422693563213 14.961911710889359
Bi 15.412528324696433 12.226248024937094 8.808933369472316
Bi 9.793394796671938 15.642242162125868 9.047734636052315
Bi 12.366282662748935 13.801664690845449 8.877463606994555
Bi 12.413633801114822 17.67419406106815 13.74801091682146
Bi 14.659085104278601 19.738960395986634 14.137010000869457
Bi 16.3257234258423 16.002031007329833 13.19482672337718
Bi 18.776809170497454 12.501848699177126 11.515384339269112
Bi 19.635936499749494 12.791321639091707 14.4195879382188
Bi 18.30643805818814 14.63771381837165 19.559741808590918
Bi 15.417650611860562 17.849768956748875 18.98465560433469
Bi 13.877373465315202 8.509475322939855 9.614795602067872
Bi 10.697808772804331 18.041600930478847 16.283526701269363
Bi 8.753417810916854 12.815395894508146 10.368768649552024
Bi 16.624314252448166 9.740013742839185 10.090074604251567
Bi 16.549117791898226 15.609175295966498 17.278234220326
Bi 15.76679711063744 12.026773577959123 11.875650580843738
Bi 7.689835377148142 15.909829355622113 12.717185701432536
Bi 10.486864081583748 15.185894665957502 11.984787804900467
Bi 16.867365142508877 12.364607988719275 15.633775441043614
Bi 17.007983621404936 9.331714204488653 15.296924151882545
Bi 17.968321053118544 11.784788745596195 18.424949826031995
Bi 15.3213698183384 14.964278651409934 20.00217791490829
Bi 6.008638227473213 13.48512241704321 11.512151109289086
Bi 12.77775473056983 16.544804111574066 17.993151888427303
Bi 13.446422615545556 15.206545233618346 15.317878394756912
Bi 9.74905203562163 11.890474958074163 13.717702589793273
Bi 14.124459280715925 9.84914920982632 14.436896768724043
Bi 12.063218008414465 10.488995094197238 11.039751544826387
Bi 7.937498242172492 10.298464073786867 8.713437009196626
Bi 15.136507241414241 11.177016332750034 19.408323454162975
Bi 10.365308774586135 15.012787852657931 15.705291390748533
Bi 13.169802013202313 12.094152332998583 17.23901641647064
Bi 12.924421049504978 7.895157984110863 12.42797238847568
Bi 15.742179333509283 8.517899182653997 17.991416224627915
Bi 6.176999056474834 10.256462381260924 11.11655492587454
Bi 10.606391722649887 13.452944746310898 18.36481034637823
Bi 7.15560303291526 13.381993559243481 14.357576960257191
Bi 9.203393557731047 11.208431072393951 16.78943751336596
Bi 13.177478269027192 7.773204340867975 16.460472620546412
Bi 9.831943278908035 8.554045324485246 10.411615798974847
Bi 8.322073053570541 9.234539756360673 13.013619466506677
Bi 11.53894159788746 9.727897770978482 18.113792283333176
