55
Energy = -199.86439204 eV
Bi 7.86908214005895 9.47459157664566 13.920721752647077
Bi 15.921516226061724 12.762190579182542 10.77221976075916
Bi 12.982379847835562 7.893800558230023 16.055237309429934
Bi 10.173072511237201 9.962352235277411 7.744959146557899
Bi 14.635459450182026 14.024603744553996 14.411443788320224
Bi 12.470061993350074 12.199297819751965 4.194496746400267
Bi 9.059503318522138 10.246465752199017 11.130378768281435
Bi 6.171561869118618 10.203946918259495 10.253868800201818
Bi 12.250348938373353 13.360171677366099 6.99657306989848
Bi 12.843874541882787 10.734612205514088 19.337500809199494
Bi 10.129734757060396 10.358294139894138 17.977627441541554
Bi 12.374599454825999 14.239385303349765 12.009527010581586
Bi 10.706304128956553 16.746199629154717 8.833873064507474
Bi 6.758602680693572 14.905117849661126 9.978650621151258
Bi 11.601293493976605 13.834284517772357 16.899247273917517
Bi 7.924427317194429 15.9906282571734 12.959213190844267
Bi 11.864664590313344 9.471605525125112 5.272012958082736
Bi 17.132650297657204 10.907616637806258 8.715582186658137
Bi 14.659969088712337 9.786183533039434 7.144764644620657
Bi 12.773268464997697 10.652833827992742 9.39289884284186
Bi 18.5292070965169 12.07172641463222 12.309282828146305
Bi 15.203342980075782 10.003094861055326 12.893935722548063
Bi 11.657188737247074 10.486354199867778 15.226733702920576
Bi 6.10836783882651 12.331914345413596 8.146932465554423
Bi 14.396609395988271 10.51172375543037 16.679094543531647
Bi 12.209423691611587 16.291647736649026 6.19545558826025
Bi 7.384049292218271 12.493856150173206 15.838115450205926
Bi 14.827923524582191 15.353267417750567 7.533780694967536
Bi 13.454703009949815 16.376539730481568 10.135605243664541
Bi 9.030768977719463 13.19850625774913 18.355846523422485
Bi 16.14625963070015 16.352907208181904 13.033111773508827
Bi 12.29968313565191 16.879281623307833 13.51870260415069
Bi 13.329657212002736 13.780170367920677 19.53488290327408
Bi 9.218677172713937 7.116992214993024 11.005294715831628
Bi 17.16776903695345 8.702721713999397 10.856233137825088
Bi 17.393906562795333 13.369802377075388 15.738160160523275
Bi 9.608603897429699 6.934809873490053 14.077214763257702
Bi 17.65083285505648 10.504032469199212 14.792119578481712
Bi 15.944358864996632 14.546949607348756 18.234682333565285
Bi 8.875972847060918 12.598259850980641 6.886342418783307
Bi 17.300589528707143 15.449365401466594 10.351461800402726
Bi 5.662732370671804 14.713938139958978 14.571642941655721
Bi 9.643070145321653 13.939893375603173 9.596357022381138
Bi 6.820999320732581 6.766619274164969 12.902888258255583
Bi 10.106560892695523 16.253449200905294 15.479130000062518
Bi 9.288314885223869 13.304376059941733 13.494693715839107
Bi 6.410314347406117 12.798277945251153 12.165373581323925
Bi 12.084065452551446 16.728327696362314 17.864956600840756
Bi 15.30352546317967 6.521266440042492 10.046371490409015
Bi 12.580525736091312 7.592315019078062 9.31222397140971
Bi 14.590315543754471 16.600431080747658 16.163787469683616
Bi 14.646278165069404 7.029287535694388 13.357078279744295
Bi 12.218549254120274 8.485566165769189 12.32500526621135
Bi 18.915117078287874 15.058374709013373 13.02576241792166
Bi 15.112945782531913 12.523356329804372 5.774527682445627
