6
Energy = -19.85970893 eV
Bi 9.187765463339987 6.596870820456335 10.785510295102558
Bi 11.160329111068988 7.254282428500217 12.441571076671876
Bi 11.398346611232887 11.239136283929975 8.210457618593937
Bi 11.011817911994447 11.937492429989184 11.105691409907843
Bi 9.53156252074346 13.469933458205501 8.967355148023174
Bi 8.80167752545646 10.604652615378098 9.588868373685028
