6
Energy = -21.03252672 eV
Bi 9.990098904924661 10.746505429145882 8.7537025
Bi 7.468525441370062 9.974214207091244 10.273404628934667
Bi 8.358733728468895 7.017819286072765 10.276709431383129
Bi 10.877597478468097 7.791642446061378 8.7537025
Bi 8.358733728468895 7.017819286072765 7.230695568616871
Bi 7.468525441370062 9.974214207091244 7.234000371065332
