6
Energy = -19.84798934 eV
Bi 11.821934107197762 8.471458102537435 7.896847102221505
Bi 10.589180903355173 6.764840605265028 6.274660978663451
Bi 9.965621382259464 10.390987212038295 13.21987930206295
Bi 8.62915524174455 10.72308831500319 10.547879053723829
Bi 8.964718133347377 13.095385989031152 12.371597539851534
Bi 11.363023119392906 11.88500654051693 11.019344875610377
