6
Energy = -20.51261165 eV
Bi 9.388017109932605 9.776127186844825 10.755559962641343
Bi 10.89788777135262 8.156869249548476 8.52182784696358
Bi 7.794111760406083 7.340989599564819 10.976106786346916
Bi 10.066543333179663 10.42206239097175 6.883320503398987
Bi 6.735021670498001 9.425012263719024 9.23384005466816
Bi 8.3125526905272 8.090541406859623 6.855862077929442
