6
Energy = -19.98998393 eV
Bi 6.516386387045725 6.755952073674794 10.107617963258074
Bi 9.118457592436505 7.890871622108086 10.864787045383242
Bi 8.851105550510852 10.465744277398098 7.101711265613845
Bi 8.631790350037896 10.844215080406858 10.106698747341495
Bi 10.43515482484421 8.066652980311272 8.077673298372458
Bi 11.342093868664305 10.900866823518683 8.720658233111672
