6
Energy = -21.03293876 eV
Bi 10.6507114893304 7.533544760339527 8.163339474789172
Bi 7.953777161348871 7.579028917230987 6.762117135904515
Bi 10.18111862572657 10.418862061801102 9.14930428570727
Bi 7.480095877461366 10.460917164998744 7.750342777631587
Bi 7.6844802181922836 9.507270357912146 10.629240314712192
Bi 8.154761396568638 6.623963146993738 9.643057972034425
