7
Energy = -23.91830668 eV
Bi 12.379710553848268 9.24690281503239 10.92888940379605
Bi 12.192161301252114 10.615001961191417 8.275321143877465
Bi 11.492211005563293 7.824001321474976 8.521704751392264
Bi 9.25037961686985 10.349308734711267 11.619564261134592
Bi 8.781193118977894 11.077042621247061 8.718927674905832
Bi 6.317404097774084 10.904565360187007 10.542356566175386
Bi 7.954662009277332 8.399844436677185 9.78570582243462
