7
Energy = -23.92924072 eV
Bi 12.369353372314944 11.007297360872501 9.475652487756317
Bi 11.444322500034719 9.841883673702934 6.8848762708585864
Bi 9.616863602104896 11.60627997844194 8.45844542190936
Bi 10.066977960268565 8.690221248443269 9.62464726121378
Bi 7.123421397357913 9.865660101519762 9.975360835171937
Bi 8.001007153170063 7.9721732114847645 12.110342958966724
Bi 7.266657390690237 6.944313052361857 9.39853985248647
