7
Energy = -23.42042269 eV
Bi 12.229713576888095 7.966033492316888 11.423600908536692
Bi 9.597400778040832 9.745400957181532 11.163768879954478
Bi 13.778728860119406 10.019467862821337 10.021412249446211
Bi 12.435933112230465 10.72285372651251 12.61440184233489
Bi 11.170104034180623 11.843503154919263 9.765645179550525
Bi 6.9559331547672505 11.278053930026498 10.36125220922534
Bi 8.419634654099106 13.261448137383413 9.083221432839842
