7
Energy = -23.73952157 eV
Bi 12.029534873762218 10.690791617171108 9.1945646650173
Bi 12.854325903178335 8.42502699170477 11.052758853503171
Bi 10.264675756574459 11.421692897069988 11.577934676646676
Bi 9.857343981620529 8.395712700679391 11.605508802246911
Bi 10.041295740419528 8.466675440388165 8.565568639773243
Bi 7.5928302602385 10.22861769288354 8.015488176062167
Bi 7.76028586356954 12.192167256384224 10.014856207831944
