7
Energy = -23.53327363 eV
Bi 9.639932716284969 12.296604210247013 10.313752331768306
Bi 13.394034568908982 11.280209638750456 13.190336747336625
Bi 8.589147718385725 10.113328032012495 12.078205943417114
Bi 6.908725853809998 11.05084133468326 9.748396001683506
Bi 9.423433026853305 9.478834807562404 9.26747340520816
Bi 15.183333846082602 9.965084316654133 11.328548827550124
Bi 13.28405707248727 12.208736566547133 10.481308625084319
