7
Energy = -23.72025719 eV
Bi 11.659002411946393 8.634609368869478 8.329926325285145
Bi 9.54479987149219 12.155795742678755 13.693788804639867
Bi 9.013106739025764 9.220843879630944 7.095322993883925
Bi 8.97124083053773 9.363074172750723 13.186824188105966
Bi 9.810686371733485 10.559997871722157 9.827069460734625
Bi 11.146777052983756 11.342100575659957 7.168758096226555
Bi 11.671031754717609 10.5630143974268 12.516462620249598
