7
Energy = -23.70725795 eV
Bi 10.147487593972741 7.80711664367345 11.520206673198485
Bi 8.6945013 10.421395308195578 11.450745608525022
Bi 7.241515006027262 7.80711664367345 11.520206673198485
Bi 7.241515006027262 9.581885956326552 5.868795926801516
Bi 8.6945013 8.6945013 8.6945013
Bi 10.147487593972741 9.581885956326552 5.868795926801516
Bi 8.6945013 6.967607291804422 5.9382569914749785
