7
Energy = -23.51713314 eV
Bi 12.140135732673563 10.892217501262204 9.064727715238474
Bi 10.177771501307323 12.063510317741523 7.326462199022889
Bi 11.24504864213627 9.039974866149844 11.21734466460851
Bi 9.690057322022879 6.6827634310236785 10.099331935381084
Bi 8.295405368671162 8.64479160055503 11.869289794223203
Bi 7.619343440551261 10.78217838074639 7.497989930966733
Bi 7.304209025627066 8.245470203556682 9.025131748148633
