7
Energy = -23.0703173 eV
Bi 9.599052637090981 8.922467355005779 8.00741986822823
Bi 10.780358896598674 11.883122070577159 8.967039417114673
Bi 8.07231401779394 10.788520236273772 9.862731967903116
Bi 11.57649111666192 13.489734419940032 11.507791980729353
Bi 12.136847222591763 10.396971123718341 11.34427057845492
Bi 10.861583915138123 7.528914092516405 10.392413543440922
Bi 9.401393813568097 9.403590577836836 12.27914972652953
