7
Energy = -15.51850906 eV
Bi 11.756214925990836 11.497047686904041 10.232823991241144
Bi 9.73440317081352 11.599552591306901 11.717244448111195
Bi 11.463821814135088 9.060268736559008 9.38583605574062
Bi 11.110598445958475 9.388732155843188 12.247780463322954
Bi 8.314564264916598 10.794380862115887 9.744399865360135
Bi 9.266057882215398 8.56007204188283 10.501619315536667
Bi 10.267746582706543 11.066457987712024 8.05139606499703
