7
Energy = -23.72975836 eV
Bi 9.35615418252067 12.164538570145645 7.397053795288471
Bi 11.687814630025645 9.455870556170284 10.675923697471744
Bi 8.236185279645486 10.801692020701825 9.873301642439992
Bi 9.853924101385568 9.22454680733337 7.8375900179014195
Bi 7.0375847938656975 10.275116879336737 7.150163551360048
Bi 9.723354933856394 8.700815462007458 12.842620133022285
Bi 11.50805342928626 6.738386297894901 11.637120545507292
