8
Energy = -27.87849844 eV
Bi 11.038998245953227 8.01984919462115 10.465419918520713
Bi 8.081759572494125 9.169019813077423 10.918055264235537
Bi 12.782837865206078 8.958810524976636 12.618440166091723
Bi 11.25842567612181 9.831275963869736 7.868160130678872
Bi 10.542902477425077 10.788120107954176 12.18876147211329
Bi 8.26710842226287 9.319786154718662 7.832240569725652
Bi 10.820418960773283 12.356027842489036 9.442940332566458
Bi 7.825013718027645 11.860862544313552 9.4110068463032
