8
Energy = -28.02314644 eV
Bi 8.963484 11.116373713198008 10.54470441347526
Bi 6.810594286801988 8.963484 7.38226358652474
Bi 8.963484 6.810594286801988 10.54470441347526
Bi 11.116373713198008 8.963484 7.38226358652474
Bi 6.754880463174712 8.963484 10.469861081857283
Bi 11.172087536825286 8.963484 10.469861081857283
Bi 8.963484 11.172087536825286 7.457106918142715
Bi 8.963484 6.754880463174712 7.457106918142715
