8
Energy = -27.24203547 eV
Bi 10.6991671936912 7.353095728136645 9.973742808393933
Bi 12.316900156251146 9.013495266808281 8.066621698987198
Bi 10.708727886822768 10.147625912377821 11.241758010426496
Bi 8.18309305265823 10.947706283796574 12.895395757279307
Bi 13.387843669929206 8.500282550008675 10.767028135617162
Bi 10.272577637748883 11.555408986255905 8.513135778050284
Bi 7.5957742306093685 12.159915550945984 10.311497122948039
Bi 7.917342380206809 9.727596561744797 8.52624408551809
