8
Energy = -28.54169463 eV
Bi 10.46300644274601 8.163824096535537 8.129888821017841
Bi 7.822905998619765 6.9632057662885725 7.309557885684232
Bi 8.11213475910686 9.946788430727127 7.564041999436482
Bi 8.137507919620415 8.223943415487112 10.029939419659986
Bi 10.469409391652183 11.602430072691762 10.663808313358329
Bi 13.255856366591107 11.109580642590515 11.688151490721703
Bi 11.966165874047975 13.786537546525873 12.139157090412471
Bi 10.977195493068063 11.37224175592994 13.626438906042159
