8
Energy = -28.58127852 eV
Bi 10.291735898896095 11.703918278255376 8.155344281930555
Bi 9.103461560958584 11.136006691467943 10.901401333575675
Bi 10.68879059415014 8.984463830474692 6.967738266515189
Bi 7.947477858195772 10.177373618487618 6.8308069242915535
Bi 6.796138307649901 9.667886047628445 9.605754385100882
Bi 10.329878504807827 8.486900924438979 11.779294201621896
Bi 10.699019752793875 6.981399983066188 9.219688275894441
Bi 7.969501276360859 6.987141897872969 10.450252488172264
