8
Energy = -28.25152194 eV
Bi 14.590076892237319 15.965784941642658 13.43583329560647
Bi 12.271075287095245 14.288056112534742 14.40516511024185
Bi 16.611718821633904 14.177107961789478 14.795100792753551
Bi 14.562495072018876 13.001451377853499 12.908702788453324
Bi 11.990560993584017 13.636486892257704 0.6965939618501715
Bi 16.332846930398254 13.510923068486663 1.082041453492556
Bi 14.016642513423669 11.75316001417893 1.9128398638549453
Bi 14.035388928223261 14.66740647053599 2.6693528271408034
