8
Energy = -26.92042233 eV
Bi 12.70563185151477 9.7953096806656 8.301437697013892
Bi 7.559842074933063 12.743488106602824 11.01715239976473
Bi 8.485066123777594 9.883962242901218 11.403614465297945
Bi 11.033010119448631 11.307174255854223 10.625649357603166
Bi 8.363175260157645 8.987373448262478 8.561056228779625
Bi 9.796032213532873 13.491567268580347 12.620697379486238
Bi 10.952420638788146 7.443994396346825 8.91078354397331
Bi 12.702888801746637 8.734099549239435 11.072580609738397
