9
Energy = -30.86579481 eV
Bi 7.339624352239596 11.55218910297305 12.754955608403792
Bi 12.313924439672535 11.673592030012971 12.332898388073158
Bi 9.721443588504588 9.956879281582223 12.234153083643953
Bi 11.237902991742425 12.404184797169126 9.630472792173846
Bi 8.25757432172148 11.409885052500751 9.910755906732724
Bi 13.034030591533678 10.014822375696347 9.906364502807234
Bi 8.400888147457195 8.505618203247144 8.67182683186102
Bi 11.147428330479348 7.548249104748674 9.489947609969377
Bi 10.686185884222358 8.789939594982448 6.838515884373929
