9
Energy = -30.86651472 eV
Bi 12.348240799629371 7.485911498495349 12.566206475955159
Bi 14.166280250961117 9.458240182964495 11.841250511847749
Bi 10.31691499987508 9.87429737877874 12.071715681136366
Bi 11.31173942295384 9.178764894689934 9.253627537484563
Bi 9.326772418505382 10.082993771092363 7.183249162453732
Bi 12.249360098046298 11.742817305308616 10.625192044873836
Bi 7.623749505050818 12.108790677308518 8.546765236553872
Bi 7.508870503287916 11.260215781915534 11.461030679164635
Bi 9.38754408190671 13.367953972345624 10.666864701021407
