9
Energy = -31.55946936 eV
Bi 12.934175476576977 9.994876339377681 8.725158053494956
Bi 13.084839485471782 8.71017010869627 11.390042825800611
Bi 11.357182098029044 12.257023846813677 10.529314411016559
Bi 10.436537502260112 10.262880994808393 12.640522879351437
Bi 9.515117143209011 10.912665501352777 8.461376343013306
Bi 11.342508404730836 7.499091190761133 9.30028405261549
Bi 8.528248538247981 13.479810089946914 9.885774290355501
Bi 8.72854692210395 8.877815002367244 10.559931796596212
Bi 7.572162490565819 11.805123155331325 12.087145362139799
