9
Energy = -31.46949055 eV
Bi 12.879654803246323 8.443418603043789 9.093720620801014
Bi 11.674391808051109 7.773522692972676 11.729565163492929
Bi 11.632880672259203 10.736163215807206 12.368474325945247
Bi 12.728106604321656 11.438772323004741 9.614370749421262
Bi 9.086879253394256 8.828532393916532 10.143588112307288
Bi 10.517683280052402 10.30576855923903 7.853278054724465
Bi 8.320819328705237 11.321123434907713 11.701100601138467
Bi 8.035621170193116 12.170130219109058 8.815313442761289
Bi 6.162620125805683 10.130449488916964 9.805230100510766
