40
Energy = -85.92606025 eV
Ag 16.613458238858534 9.036884081873605 10.877657027476536
Ag 15.476185585658179 9.39443136602758 13.30170970858358
Ag 14.061317581337313 9.751847056197446 15.63737363499829
Ag 14.154209293421868 7.813111454677287 11.32463578147274
Ag 16.33539368248999 11.748989122158024 11.691680544157617
Ag 15.499432533985003 10.854534334481434 9.102498876949516
Ag 12.633020790559247 8.80788306672207 13.416855710075986
Ag 14.717678049278774 12.017405127870292 13.989560833452758
Ag 11.257641260865586 9.828463977714911 15.620987580967702
Ag 12.84616939242477 12.192664953191722 16.191574104157826
Ag 13.63122339223836 10.771500309002782 11.367332494248686
Ag 11.396761660878301 8.508571558054294 10.870651090707364
Ag 13.398615561944794 9.039064897661596 8.97240722530582
Ag 10.404186983126305 11.662910303738334 17.50616537821337
Ag 15.221224512362202 14.34076106193731 12.400374490760486
Ag 14.959594506890177 13.421032695397331 9.764679359380201
Ag 11.91080333477551 11.730455020239818 13.465242410593618
Ag 9.951960872563232 9.588566457539152 13.087695178308485
Ag 13.045024193411956 14.270297606658477 14.310018921658152
Ag 8.813848094306369 11.145778532481572 15.114052252537757
Ag 8.266909374205412 13.243437895234031 16.844234094014187
Ag 12.823678247952891 11.855601332749732 8.790880267893774
Ag 10.840513786986133 11.47268839250734 10.871948578674553
Ag 12.630753423499689 13.68287510402457 11.436745689707202
Ag 14.19519628284586 15.973380479697719 10.132354073041595
Ag 10.844596544713106 9.930776617514883 8.389629664224294
Ag 7.380580841175759 10.628937079903032 12.691639928366765
Ag 9.288534074771812 7.763448752630904 8.509190369118775
Ag 8.736250583496746 9.405904802075888 10.59353099594173
Ag 13.205166235394145 16.47818555321365 12.675643845261055
Ag 10.68327786298203 15.145197574527446 13.018404772839903
Ag 10.49018672050516 13.491830928474293 15.27698204209798
Ag 12.128405027073049 14.52820421128475 8.735793413624213
Ag 9.146387117212344 12.775246878586232 12.842995848658944
Ag 13.243684834234644 18.472459441302 10.639624107190063
Ag 8.011259466965793 12.109965771622026 10.28387026145149
Ag 10.038013821365379 12.594136374897372 8.236380690506412
Ag 9.833816774019047 14.23273868169419 10.483926806625973
Ag 8.097404835786339 10.387631225452695 8.047331493514815
Ag 11.353041637019048 16.508609288893574 10.585580666816783
