40
Energy = -85.64499932 eV
Ag 11.796165995404108 17.700705453888432 10.951101699931183
Ag 9.25170682916499 16.452456453810782 11.101339204985102
Ag 10.64805775656125 17.10698028133731 13.428005295274426
Ag 10.906428819939281 15.998780657002756 8.914329660067876
Ag 7.121536162239269 14.699428842261351 11.451104251653378
Ag 9.432067694488325 13.770177508808901 10.136805620301832
Ag 13.640736479222891 15.740459020900895 9.928667781028327
Ag 9.278269926935554 14.541482023305392 13.238311387714678
Ag 13.478490550791925 16.47816159159737 12.925011213770274
Ag 11.703365402214953 14.774003752878277 11.662761524036712
Ag 11.772957798113831 14.95946348860822 14.6656752057144
Ag 7.985626595130316 12.110248329194045 12.1737205417146
Ag 12.071546205311693 13.544257041282842 8.947771077012732
Ag 10.676560199228696 12.258024136851612 12.203469156537004
Ag 13.01302629235996 12.467075827293174 13.758438699466316
Ag 14.80781129064767 13.306468825354496 9.108214792212328
Ag 14.51254461035354 14.712229969177022 14.83718178657334
Ag 10.554643636750281 11.30929896263258 9.27214442902698
Ag 10.262572542977328 12.75501078900376 15.205839969999285
Ag 14.657874177479561 14.063410503024977 11.962912781026796
Ag 13.16796791091954 11.76655039423923 10.963694764865453
Ag 13.239749141333858 11.018024427988905 8.186890178884589
Ag 16.07830942569169 12.551662310807354 13.922425672710798
Ag 12.809732726015877 13.068133663620152 16.56684951639599
Ag 9.511886564887334 9.742938393037043 11.304747610441801
Ag 16.074652774430653 11.030578347388325 8.187220633882683
Ag 16.230827813221882 11.846679025586022 11.055470516646505
Ag 15.631905197970921 13.175000047457267 16.82515969566689
Ag 12.003428421838706 9.877450435950006 12.850875189788923
Ag 9.385296750964562 10.389026432203874 14.058196211470467
Ag 12.043759853498084 9.086228505655061 9.97330061043306
Ag 14.835551093254866 10.265717822442971 12.898133185065149
Ag 14.840492661395126 9.536666283118107 10.098229963438333
Ag 14.564551538115609 10.928237274822067 15.702510264079551
Ag 11.769124408487043 10.502412528927188 15.76024705786487
Ag 10.903729306099804 7.409864102061233 11.915589952454425
Ag 13.754579377861539 7.797166150948541 11.955839556442458
Ag 13.645125423946114 8.48606690570747 14.75927501791179
Ag 10.796914095635007 8.087446329152973 14.723901646360186
Ag 12.5407798198678 6.051577615138129 13.796753457627181
