7
Energy = -11.64354131 eV
Ag 8.789358 11.161375031746669 8.789358
Ag 11.042332861725884 9.521098391986055 8.789358
Ag 10.185662300372327 6.871444773451507 8.789358
Ag 8.789358 8.789522318688915 10.274632202008432
Ag 8.789358 8.789522318688915 7.3040837979915665
Ag 7.393053699627675 6.871444773451507 8.789358
Ag 6.53638313827412 9.521098391986055 8.789358
