21
Energy = -41.95564007 eV
Ag 13.735728748840334 9.712121810689547 13.030136983629857
Ag 13.994863581119258 10.718807637990674 10.465393949234546
Ag 12.047178660546292 8.709976507406285 11.090228629610687
Ag 14.270451383781076 11.73354956773093 7.85894791202511
Ag 11.111642407323803 9.21887604067916 13.751517307237105
Ag 11.81148912258689 11.493852506083774 12.149330223163158
Ag 12.375140422803232 9.702848937494636 8.409855241973057
Ag 9.340879253128548 8.164828471035293 11.85299193005351
Ag 10.248277961775921 7.94561009977893 9.15655136588572
Ag 11.800950764868903 11.946794543877063 6.726106231915364
Ag 8.431084220052414 8.723318302266307 14.471606487512648
Ag 12.115567398081593 12.565149092114194 9.487209540239862
Ag 9.86462951975457 9.924789649807272 7.159779827153499
Ag 9.844322537170742 10.535251875214207 9.967456788775875
Ag 9.10363092703714 11.011559544574391 12.923068958275596
Ag 9.585311966420496 12.821589091494053 8.246079682396198
Ag 9.818541089501116 13.053691336523443 11.072327231671546
Ag 7.5994699272083395 8.741887996340047 9.718268480841015
Ag 6.832034704462193 9.412553637539082 12.374418616655488
Ag 7.499002059523733 10.994829523706663 8.119442910473577
Ag 7.356442828596572 11.700293557397456 10.789278450695129
