54
Energy = -118.90420640 eV
Ag 10.952007314268643 7.744632163759415 12.041339595066107
Ag 10.190873719864962 7.684283753632273 14.749896023488795
Ag 13.514789991998198 8.760063898143596 11.447850900625635
Ag 8.92333808313361 8.127114640257014 10.182360571485937
Ag 12.76523542473804 8.483111903956333 14.135386696650546
Ag 8.486871132525119 8.988758473831183 12.8957249490803
Ag 11.328292569572374 9.709052549352986 16.340146293542027
Ag 15.41740205804004 9.413970364189709 13.54543123110917
Ag 11.339622298489997 9.552556465892978 9.661594328354948
Ag 14.012231011277855 10.276924657605294 15.835828296210172
Ag 14.091900945540985 9.430680215392957 8.772381357186559
Ag 11.518102311166643 10.466332275753771 12.439670355865598
Ag 12.531859126017054 12.084060992138458 17.500117965891885
Ag 16.607953072184547 11.220080666640657 15.50432838236659
Ag 8.625171733033406 9.796478422300044 15.589666225853032
Ag 15.294222784894526 11.73217336072146 17.930594235014972
Ag 15.59499041948133 10.42759420450057 10.844626806914292
Ag 13.087618760746459 11.82070624496384 10.288460833835526
Ag 10.45564038276036 12.382658487108305 9.146188469464017
Ag 16.982938393920687 11.846910716930665 12.878650902833959
Ag 9.017189159499251 10.773309127167812 10.860512295536326
Ag 11.89489437386649 12.09971579883937 14.713663817721114
Ag 7.1973428944948825 12.19547941919843 15.380327669883094
Ag 9.822320492060728 12.230302484648497 16.561346959843622
Ag 17.745373938676654 11.847577668065217 9.977028271110063
Ag 12.502927464209872 11.265757286741513 7.536543915987349
Ag 14.104157953870626 11.846745215471246 12.998272627682182
Ag 9.282706830951135 11.782554486625195 13.613595458068136
Ag 17.370528066130053 14.391605514470701 9.029827385774519
Ag 6.828272426951151 11.497413059965039 12.539119753883394
Ag 14.570644948391799 13.12836869684957 15.621260651488981
Ag 15.51807365345464 13.387292809416985 10.955031224972492
Ag 15.14348799816828 12.383357811258444 8.35625270170384
Ag 13.053469139600347 14.434043752618036 13.593990798276396
Ag 12.57405275285704 13.934481576272223 8.145139045882566
Ag 14.266713904134743 14.46185184470925 18.078666135204326
Ag 11.123089980477616 13.20339190502123 11.955190972644184
Ag 12.056961229670547 14.596170999049814 16.37439589526366
Ag 8.462990506822011 13.48671364403751 11.030701042652115
Ag 18.161942829827616 14.11332776035272 11.769502170388352
Ag 13.161722049790551 14.892283759788755 10.816453169180134
Ag 10.008675793875453 14.352320676442234 14.589489171943512
Ag 10.449160165075929 15.103759896863226 9.844657589888081
Ag 7.453236885351144 14.21773311009449 13.512511692467369
Ag 15.979055070368807 14.56973212225646 13.583133537677535
Ag 16.34314384147686 16.13230091392398 11.188680992930665
Ag 14.391433458490887 15.972283455014214 15.630299598810616
Ag 14.891593995616056 15.41492908340453 8.674427306795556
Ag 14.256666461389726 16.917066479580296 12.986937626516328
Ag 11.581824012324967 16.685640215765126 14.283238188355766
Ag 11.749339180746 17.2083062852943 11.503515781423049
Ag 12.35798578605195 16.676511814254 8.61507260600546
Ag 9.465830273954246 15.882245695906704 12.359129483323697
Ag 14.273109488856846 17.708408494385353 10.32266038531524
