14
Energy = -54.60315114 eV
Sb 10.946324434267957 8.760698346170093 14.495234585851655
Sb 11.441925185798212 11.588269706178812 14.400395837275557
Sb 12.886039961022627 9.950950685490794 10.844280508377672
Sb 11.182489084982805 12.169023638337656 11.437401254077264
Sb 11.28632364342009 7.799506224936076 11.775586696753654
Sb 8.79668695835559 10.650120473937854 14.338775801444669
Sb 11.104969680896088 13.460183769931584 8.65057536765019
Sb 12.46957463401886 9.097763529235 8.161181939104468
Sb 11.716957972722271 11.483292851353681 6.660737355644216
Sb 8.721622543450598 8.455614967422491 10.721868170831582
Sb 8.49914316735486 11.237802701318627 11.355325844042847
Sb 8.40974674451335 12.635358001842228 8.58215765113857
Sb 9.71601059071095 8.205403232511516 8.060674080603688
Sb 8.92918636730226 10.613012840149958 6.622805876020635
