10
Energy = -37.82156742 eV
Sb 13.048451439170034 11.707962246145698 8.97257173076971
Sb 8.303782395582697 11.747152723524676 9.379563425350396
Sb 10.756028554153463 9.93537119294705 9.486166655230054
Sb 13.66208130990826 9.179492348256105 10.11450403592367
Sb 12.983311971604884 13.599219922869938 11.029143954490268
Sb 7.211011986839426 10.291341678683866 11.51548410619984
Sb 8.708040262396846 12.661596418668694 12.02936866004602
Sb 10.246064543800918 10.188195963253786 12.299011512577271
Sb 13.27815138334335 9.46295268377513 12.828461518441218
Sb 12.768053153972463 12.191691822647138 13.31070140174414
