16
Energy = -62.45305669 eV
Sb 14.298904651934489 7.332760742375785 11.389457005285736
Sb 11.707249691154642 6.88026652957959 10.250541611336157
Sb 14.03105997676971 7.4343007186424295 14.249888944270502
Sb 10.043491948350452 7.287824493534158 12.56291570312645
Sb 11.637302226558834 9.035254698941966 14.188768476812399
Sb 13.95358939372305 9.871819829059426 12.72535008873369
Sb 8.593461323025103 9.083094595694376 10.74585280904604
Sb 11.242251606854019 9.754658465467664 10.085221885770085
Sb 10.585402931651489 11.387351808710145 7.722922062928972
Sb 12.187339124748776 13.094461446704218 9.325105073720472
Sb 10.867373682916023 12.8971198721152 11.901059579414731
Sb 7.989517042062542 12.218537569502326 8.702139068639086
Sb 8.220294214643834 11.860452084169012 11.528143937479017
Sb 11.052071163406783 15.682116405477657 8.762954928695788
Sb 9.74820963050455 15.531656845632009 11.36068327180045
Sb 8.257280398878763 15.063122901577412 8.913794560123632
