10
Energy = -38.78750425 eV
Sb 13.987535389403984 9.565646997156435 9.004124232757984
Sb 12.612012625471651 11.962779825336852 9.778820271138471
Sb 12.685870346016594 9.724651518108331 11.575122041756545
Sb 10.022702740133477 11.880241295953839 8.556141666399416
Sb 11.737292349647635 7.885051214106076 9.581665910600467
Sb 9.461420990792053 9.111706935064033 8.339672522714965
Sb 8.806358071169788 12.617367323802867 11.042046370711429
Sb 8.893075462285289 10.291886041289326 12.721185554418073
Sb 7.889606989557369 8.557790814005411 10.664870907763326
Sb 6.473633663756921 10.972386663411738 11.30585914997408
