17
Energy = -64.59356873 eV
Sb 15.315562864423718 13.93160353506665 15.144160078426383
Sb 9.338592712599622 13.298591781336052 12.160585059918322
Sb 14.81670513088044 17.520787929062173 12.2196995272474
Sb 12.740353995012603 7.993963651349726 13.991431583249742
Sb 12.712826106204362 10.93005257077005 14.419242826841398
Sb 14.174744610292281 7.858770499758848 11.472231869970907
Sb 12.508720701398353 14.427849334021662 15.368130236023777
Sb 16.132256967120785 16.270798945251652 16.49215582370045
Sb 15.861204293461816 14.848439178561234 12.476450739022644
Sb 10.631245402628913 10.789819984627009 12.394605592669663
Sb 13.460553195230508 10.961544222816292 11.671409371504986
Sb 15.520092643974195 7.483298033203365 13.787217313904256
Sb 12.228842297095483 17.360988709411235 15.348895244915454
Sb 11.733585424688588 14.61865671888195 12.586189934423317
Sb 13.822722474074803 13.717961006983337 10.83435977567617
Sb 11.892441057946142 17.473880237270755 12.440693650950786
Sb 14.92773047099589 18.331174692497036 15.01072103674237
