12
Energy = -46.40898272 eV
Sb 15.903970746306273 13.09247068412434 11.707025742165193
Sb 16.24775871065927 10.770441015426417 13.318259854704744
Sb 12.773652940307958 12.998967129396302 14.965690924764163
Sb 13.563435504680587 10.327637576270646 14.318052603901796
Sb 13.531939003320494 14.380158845129468 12.672550329307139
Sb 15.240813757055388 10.535146266101533 10.581491080720701
Sb 11.578890123092705 12.655426295281062 11.327906642077405
Sb 12.603234935450676 9.985080153501418 11.625595484216422
Sb 9.84163439777225 12.806976159172367 13.565063774517826
Sb 9.140916245321712 13.049543991865356 9.617811409165204
Sb 7.598289689234736 11.86450250602542 11.65381140243187
Sb 8.209003486607957 14.61058080648149 11.829696271214372
