15
Energy = -58.23826794 eV
Sb 12.303617296822166 11.73025915254702 8.08335707795928
Sb 10.868808836430416 11.351135290109955 10.548004122163608
Sb 10.8438722218592 13.922866332534344 9.238048986879456
Sb 13.735693870560317 11.149288539275926 10.509678728377617
Sb 12.182636382502048 13.07449337858397 16.554637388542805
Sb 12.52034557039958 15.43586192162974 11.025723719674202
Sb 14.830655689256458 13.765317404960875 10.867935220596854
Sb 14.156432123481146 11.575816488017836 15.068220518843827
Sb 11.246822718771998 14.051455392663941 13.124216357950031
Sb 12.22593781734525 15.60917291284522 15.30851204545922
Sb 15.787093418982556 13.385388894895316 13.595316101595452
Sb 16.040966816517162 12.126955938718117 17.21306287808055
Sb 14.063547570145364 13.678593244529473 18.666793587667794
Sb 15.024050954857929 15.875584433515224 14.703856384439996
Sb 16.128692252344226 15.019932911261497 17.220669729764815
