15
Energy = -58.2770224 eV
Sb 13.446310807057893 8.301655281569628 8.684811979506819
Sb 13.423984373162067 9.208093461969545 5.982559811414658
Sb 11.712946835603189 9.505790107404245 12.18991105155855
Sb 10.965046872075964 8.50132750577936 7.227472207706181
Sb 13.454377872154497 11.66401340230508 11.631389089571941
Sb 10.76297689448711 10.38272719572735 14.77991531459102
Sb 13.325480995016205 11.195955525639432 8.750398291825444
Sb 12.414194414376379 12.566752060565841 15.773257033274772
Sb 10.464626290812935 11.188503641927113 8.255647560847091
Sb 9.360005478225986 10.261892700741793 10.735832645807056
Sb 8.578772339364193 12.165662099379006 14.213441192681728
Sb 11.75632315266324 13.945965397430966 11.381088310488618
Sb 12.210779585000488 14.860706206594955 14.06888919644963
Sb 9.065267588955322 12.987623876570304 11.536383206174385
Sb 9.98913566499486 14.193560700345389 15.719232272051785
