16
Energy = -61.27015288 eV
Sb 9.424862773361163 7.409916911533287 9.532796639415945
Sb 12.113605171254079 6.783879539572764 10.276022080807946
Sb 8.695898961260117 7.00651408077705 12.357209213652412
Sb 11.44755093949911 6.4625123396046416 13.098759778200776
Sb 11.179728453570098 9.386585408355574 7.854675050206904
Sb 8.121333817645393 10.470367616450053 10.52300464758306
Sb 12.957109784258906 9.604655463351122 10.029355876400752
Sb 10.151274879739029 8.834391223844907 14.00906672081081
Sb 13.639434098773428 11.648928778244173 7.4527891628535965
Sb 10.730434423496384 10.444008547595509 11.666488662430531
Sb 10.814425725801339 12.177108866088618 7.175907017653395
Sb 7.853860417344507 13.045294333251121 9.228817243367176
Sb 7.024783207351975 12.802698182987884 11.983450803877568
Sb 9.182003140907675 14.536846710253633 11.291154696372596
Sb 12.380433245035796 13.638993719567752 9.043447369517857
Sb 11.636568831978227 13.117156619035288 11.829103344895788
