15
Energy = -58.44969229 eV
Sb 15.619470474218561 9.352070618154205 10.35299182383356
Sb 15.39540870951614 10.207541694765304 13.09754550316989
Sb 11.775617168508044 8.40986728906265 12.02819639197054
Sb 12.91810836357201 8.869670159468654 9.454335231455985
Sb 15.619938951692955 12.125330865886761 10.987347943485206
Sb 12.563298796012692 10.77289731076314 13.401866879012852
Sb 9.035377468491898 9.066552401665366 11.30939953505216
Sb 9.465567472429854 10.379493802968307 8.800798405501927
Sb 8.414939172581407 11.089927692670496 13.2434558537169
Sb 12.091107305722588 11.542161459991316 8.910793241657183
Sb 12.541063750912116 12.8315621997358 11.41741459405971
Sb 7.451217832243529 12.392357618392252 8.983215458660316
Sb 6.320864785763933 12.267068466763302 11.613242829104156
Sb 9.948977868358043 13.461277762993875 12.783370371547974
Sb 8.082098124444894 14.475276901186762 10.859082182240138
