13
Energy = -49.87907296 eV
Sb 17.656680768681525 12.754876488127953 16.938090932323597
Sb 16.2371864185804 11.745762679247747 14.673539071634256
Sb 18.0815576661432 15.545817236737989 16.257078335204092
Sb 18.913179315358434 15.147929742181903 13.572906910132625
Sb 14.78326574337113 13.154807628834384 16.688585872918477
Sb 15.244120282113961 15.939223992024829 16.00437931523769
Sb 17.190539496504787 17.12596810158425 12.372156745035127
Sb 16.69074949358391 13.657006943073783 12.55465952827464
Sb 14.813272798872001 15.71814037195433 13.207155014283078
Sb 10.08629083795619 12.790186203962675 13.412233921398878
Sb 9.238612840348035 15.050373256580473 14.936650911928066
Sb 8.97665326528138 15.06600783539411 12.09476814266211
Sb 7.304037469396865 13.374614045880053 13.67346646900817
