15
Energy = -58.20132733 eV
Sb 13.40749818250185 7.781342587574153 15.873934213079906
Sb 15.664842156259134 9.511648486955592 15.68874791201924
Sb 14.214443999614486 13.843477696853215 13.330968975400602
Sb 13.62422117101391 12.00019501908865 15.46883145572844
Sb 14.628052954912427 8.28569610747306 13.33727897604772
Sb 12.305492311061798 9.828113453856274 14.109586143329635
Sb 13.73977602381157 12.648042757107246 10.76923898174953
Sb 11.318161755106768 11.169246262226832 11.009754318932533
Sb 12.710391980128568 15.206756676028593 10.09746962181798
Sb 11.616707560535643 14.02623727995503 14.580989106863946
Sb 9.788726595807892 12.867018557732953 12.712327758279654
Sb 11.447038030849964 14.350611171169758 7.632333879015946
Sb 10.105681340858766 11.968669083231315 8.48148389772345
Sb 10.133330635172237 15.353346612379362 11.397534448634062
Sb 8.847079627154821 14.498298012795791 8.932382220153649
