12
Energy = -46.43182545 eV
Sb 12.081069172589876 9.961055159345808 11.05796631242516
Sb 12.034325514293604 8.05332935464963 8.917175090619219
Sb 10.942993715729731 12.470853902219705 10.177457026420315
Sb 9.827241789632682 9.30651095275732 12.695659217738779
Sb 9.217000466540716 12.161039354845752 12.525371187066888
Sb 10.89643655749421 9.297818097856418 6.566798118807494
Sb 9.07735853860077 7.000314362958539 6.601640983544116
Sb 8.10676056609846 12.467214143795509 9.926169888114417
Sb 8.068342098858418 9.656335837565681 6.680454374130338
Sb 9.72842420988666 6.417647392939938 9.394098946445151
Sb 7.9479040692775165 7.9995053482908025 10.978070143737524
Sb 6.845309894584883 9.981542686362292 9.252305304537852
