14
Energy = -54.57784089 eV
Sb 14.769883456999812 9.5005532687164 11.57932880831345
Sb 12.797797032994051 8.254712073138535 13.252576100846698
Sb 11.694479518005227 10.51863904587363 8.805266609818982
Sb 13.744059829500074 11.84168006989546 10.312904020107723
Sb 10.769290287106152 13.090512700576102 7.933375960778243
Sb 9.583598135102205 9.618532641209187 10.496518690106985
Sb 14.718379766132928 10.055267153100923 14.395627149436836
Sb 10.318131421893591 9.663863538101577 13.296637205870718
Sb 7.909700484836259 13.088327543840744 8.171800097585791
Sb 13.47419910161991 12.63274783426406 14.759920708030522
Sb 12.57528346064926 13.645920878373243 12.210394505331573
Sb 7.932943002127855 11.940897147474324 10.798213132616162
Sb 9.552227818387498 14.249289619192677 10.259221845157551
Sb 10.723937918588923 12.405056355111897 13.999289445005646
