11
Energy = -41.94141604 eV
Sb 13.92828627970909 11.783695929140725 13.788456648298878
Sb 12.901483095097152 9.506537587349788 12.405171873380286
Sb 7.207799286071171 11.747800352053687 11.69169474059646
Sb 12.912663462581666 14.066779741727203 12.405365701782497
Sb 10.0375020328252 13.911622173281291 12.030307099340877
Sb 10.02113851747805 9.662959010421913 12.027281113792048
Sb 9.148010581534509 11.789713211057915 13.804325069852384
Sb 15.861563943909596 11.773488407510115 11.567131979555406
Sb 9.606030114451597 11.790712349704647 10.097570741833913
Sb 13.992173616230945 13.214866129199894 9.890944178375769
Sb 13.980306407194156 10.349123865845336 9.889049610483426
