16
Energy = -63.02568669 eV
Sb 12.977320596652607 13.901872491125772 18.602799523575573
Sb 10.527341991756915 14.252034779575009 15.663666815504415
Sb 12.153725108070667 12.049027864877539 16.522308103718693
Sb 12.16014564419912 16.21348418479299 16.96143404273191
Sb 11.118020761420555 14.841370063001058 12.925268782077094
Sb 14.841671801999963 13.026892042580435 16.560973515366985
Sb 11.143278355897838 12.133437394692173 12.01149362975878
Sb 14.669977886538335 15.739471694958924 15.658539518187037
Sb 11.782868687479224 13.023027207218496 9.396994859329078
Sb 13.888750735988326 15.68406543034883 12.896457623426148
Sb 13.679464766889351 11.22087651149681 12.937762305099854
Sb 12.53296847627255 10.3728750146053 8.521632157628389
Sb 15.395644374922096 13.366097560695046 12.165920508911492
Sb 14.570856383465228 13.79503995840439 9.48489568296059
Sb 14.225131488562115 9.506877937949929 10.672284617716636
Sb 15.33695969610948 11.151395836041422 8.603238350042805
