12
Energy = -44.76947388 eV
Sb 13.116382580211857 13.620877665427091 13.300669226559705
Sb 10.578486605612541 10.688192842676134 14.779555278577954
Sb 12.609788556291566 9.214727208160026 11.561443384682082
Sb 12.47584056823946 12.446043792054075 8.069305209458127
Sb 9.730027025377241 9.407012730442913 11.873366698117701
Sb 9.578988563884188 12.198798510929157 8.404480621708304
Sb 12.674381705344308 9.573039711983544 8.574285950083963
Sb 10.240100686887654 13.391420745850914 13.793394173673757
Sb 13.352519754545341 10.794592498295122 14.012697809295041
Sb 9.009872178143596 12.166942891353912 11.349042399802162
Sb 9.80548746116533 9.314968263487009 8.588285234135068
Sb 12.075732538029767 12.1659717738635 10.968636636660937
