11
Energy = -42.34933206 eV
Sb 14.109190667270536 10.572863936007167 12.714795602076462
Sb 12.7360052853764 13.127098440717738 12.522375813104524
Sb 12.252669028132871 10.56647029290055 8.699614424988882
Sb 14.724919081403934 10.020076422354496 9.998533421693661
Sb 11.937898485665988 13.185527865290492 9.765091934534304
Sb 10.606695365832582 11.796790592197263 13.951548335833227
Sb 11.564325505415765 9.216298979629888 13.073779198519366
Sb 9.066482991796773 13.191999751513984 9.807932327445302
Sb 8.247967852196963 12.280367003648708 12.406794706101863
Sb 10.662671349120325 8.89816920489949 10.367813591441143
Sb 8.247610882724485 10.442006834146358 10.198465121417618
