13
Energy = -49.874999 eV
Sb 13.450532351617177 8.122710083405591 13.424518211661258
Sb 11.906543739477412 10.489907659390989 13.026056084762077
Sb 10.743915883806867 8.229585536297272 14.324914265558498
Sb 12.752266231439013 9.762941888144896 15.653357066222746
Sb 16.584583770457783 17.74375394838443 12.197651729295135
Sb 15.846083703823146 14.309498172652196 14.959715490663644
Sb 13.901678283563701 16.782341040059137 12.003954828174425
Sb 17.71320754198011 16.43533888223255 14.513001578711545
Sb 13.393847503596467 15.70510816642547 14.65303003991597
Sb 16.48874575068464 15.292710837584423 17.595093230688377
Sb 14.464209030403017 19.38015683434808 13.189468271833181
Sb 16.658618598741565 18.01497587651268 16.6550127071928
Sb 13.956297568904176 18.270842411261803 15.825194292129444
