18
Energy = -70.82642453 eV
Sb 11.768097106801642 6.316362988581217 13.35959836799229
Sb 10.72179100833157 9.058858665642033 12.913532804984662
Sb 13.308288077478807 9.917325652308264 13.756730484695057
Sb 9.357144750940755 14.35017907419485 14.522617407124422
Sb 13.109537607983235 6.419198806361496 10.803995329486506
Sb 14.455300902755134 7.308034581314404 13.206034753467268
Sb 11.278107692830003 12.674274213847871 13.17859760324539
Sb 11.24313299077594 8.494393860726197 10.135778270525671
Sb 7.958209742549884 15.741625087152537 12.441848677748785
Sb 10.08780873113438 12.597678637298074 10.594325307193616
Sb 10.142896421434374 17.046244628173607 13.869157726634306
Sb 13.326698537117604 14.627448700607058 12.876897131329189
Sb 13.406054345709347 10.052904232616223 9.178811722251282
Sb 14.929057196429529 10.696193417125892 11.539858508979876
Sb 9.683855016875041 15.379833885116902 10.155622090599294
Sb 11.855424815385689 16.67713279906716 11.568976475664874
Sb 12.356518852681038 12.749950342625375 8.864562704863344
Sb 14.58101095911759 13.461295183571732 10.60198938954523
