18
Energy = -70.85763973 eV
Sb 17.522314516082783 11.540588418264269 14.80977533226908
Sb 15.620579264721705 10.99329919627508 16.886902239546014
Sb 16.836149990274254 8.819853564984419 15.367843788897645
Sb 15.970430735094363 12.258228635785558 12.5032685367485
Sb 13.438494906555865 12.847201962575278 13.701018694124432
Sb 14.350381776400003 8.463930449264623 13.923262842887507
Sb 13.143652882251343 10.60875340061866 15.439464051178497
Sb 15.070059113927721 9.74661161034469 11.485443587471428
Sb 12.747889852993977 13.270542174645012 9.631120285534466
Sb 9.015844535097939 11.034628730139785 10.1135263242436
Sb 12.475418382948103 11.151074719207168 11.540755126335243
Sb 10.401419744575694 12.454048476384735 8.06812801245203
Sb 9.455014395936523 12.685530551528368 12.410691922149207
Sb 11.01284204338478 14.846469707033549 11.36016490405419
Sb 9.794065704397815 15.154178649905285 8.780013954904318
Sb 6.401793748852755 12.253854027833615 9.673585108122108
Sb 6.838959147591962 13.922010847756901 12.008656192799993
Sb 6.989376163981512 15.03388178252142 9.381066001350149
