11
Energy = -42.01949681 eV
Sb 12.202927504506954 13.993134877514876 11.936502330103446
Sb 11.52906194370291 12.189763703157226 8.990730063910563
Sb 13.443025449360965 8.867070173495627 9.014264447637439
Sb 9.068804388206633 12.622859953575603 14.551353593705961
Sb 8.687096192817648 11.23906156782443 12.083101844892015
Sb 11.238938515396633 7.896885852414709 10.425630490373342
Sb 10.78210971890439 9.512385301335186 8.11830920478401
Sb 11.902306923536864 12.45780571617501 14.25467417157128
Sb 11.137262765065145 9.884617671791448 12.740251467034442
Sb 13.160285135700036 11.16474106837607 11.086319424742785
Sb 9.63852450901421 13.550302744046142 10.687983172190576
