14
Energy = -54.30472946 eV
Sb 10.02963521623796 12.019480569219006 12.667877383485454
Sb 7.48965678164874 12.663068671955095 11.474630994938007
Sb 9.847445926656768 14.228095844363136 10.8550692981271
Sb 9.18169955651514 6.021663281886145 11.403902276167441
Sb 7.548411861820668 11.819171457760143 8.646728264871562
Sb 10.105487178393734 13.04365506621101 8.187130177864237
Sb 11.913557876216153 11.003799164849099 9.07150091369865
Sb 11.61728028080104 7.614747799339899 11.357264613525727
Sb 9.922864303924326 9.869126161156668 10.721141397759906
Sb 7.435478247821021 6.953269279497018 9.312364167553362
Sb 9.53929048217804 5.148871087680137 8.644312018418567
Sb 8.081468565251598 9.141641274565512 7.556410782604406
Sb 10.932800972550359 9.142657178573085 7.079274741107042
Sb 11.892264689984458 6.868094622539962 8.559734909878133
