16
Energy = -62.86033566 eV
Sb 14.727926355685806 13.464593365354174 12.89420269690989
Sb 12.102421402091869 13.912971034758082 11.81163899280129
Sb 14.582720377318516 10.608256356832056 12.518027103395479
Sb 13.998232726049975 12.346407494531574 10.316362881298481
Sb 10.614309346320951 12.23037157157263 13.587484986972127
Sb 12.04850146267892 9.758266707659928 13.5359104504088
Sb 9.349269610793915 12.15183980731155 9.315071462117455
Sb 11.468689600001921 10.243920254532174 9.105164686241206
Sb 8.300279759040833 11.702875971562596 11.936991213213814
Sb 11.089009342107968 8.348605355592984 11.210819001929972
Sb 10.60393605278661 8.393146123530904 7.079699739128091
Sb 8.450885199410491 8.849831542376412 12.141188319476926
Sb 7.032110881249644 10.871561409524677 8.27060780555188
Sb 8.079520657470335 9.255706424995548 6.098397607665199
Sb 6.788643686980578 8.44759484793556 9.826034011531519
Sb 8.277804889653996 6.928313081571632 7.86666039100065
