17
Energy = -65.93718514 eV
Sb 18.920923827576676 12.93375675584403 8.946664263719473
Sb 16.088221259312927 12.67676760943451 8.695207457831396
Sb 17.194676745516603 14.77869062963663 10.277244240877284
Sb 17.357294560814964 12.074997365876392 11.178997911021368
Sb 13.675679979137486 14.573856212769373 16.991456873955826
Sb 15.092794647130095 14.969212461654907 14.517914258826986
Sb 11.062897942784119 13.30128775490147 11.793041437483113
Sb 11.832171329286858 11.186221767427694 15.542588135802228
Sb 10.52794398251745 15.21055848962417 13.854208111950564
Sb 12.998156390833332 16.576087002318726 13.385258178431048
Sb 13.056794285636514 11.686386300001349 13.022184925083682
Sb 11.003087625571293 13.81165732863782 16.31478136093718
Sb 8.617029194493538 11.968067492189185 12.430911090971824
Sb 14.044029363210493 17.23081360606765 15.97626117781004
Sb 9.368783811955574 9.186336764501501 12.366488190196687
Sb 9.120426164942208 10.580518922507556 14.877248539038218
Sb 12.156573014253363 9.260429163874553 11.843652420485371
