17
Energy = -65.02221838 eV
Sb 7.977207291151528 14.644668328155907 11.804394745264785
Sb 7.813280773683354 11.895182176362331 12.688623893513759
Sb 8.590697875906065 13.461337853759137 9.237828869330704
Sb 10.958219240285873 10.598543367988357 14.191335387116517
Sb 12.116070211089474 11.567495615249772 11.550477234421137
Sb 9.075181911599289 8.563129794588711 13.343554805228845
Sb 12.25834561788928 13.175669556606001 8.96550438533085
Sb 9.471262172662692 10.976348767601353 10.484893907673294
Sb 14.440501329773676 11.415825716674108 8.729535320707843
Sb 6.076933100776932 12.918910838550815 10.586925277168305
Sb 13.129366908386432 8.822883674982535 13.84845785377728
Sb 13.309088026015875 10.410285004157702 6.305640170497121
Sb 10.754031277321882 11.590731847343289 7.03224359014503
Sb 10.44107943672811 7.469613551692741 11.049928818049393
Sb 12.963544429275279 8.959783626113058 10.614642159773462
Sb 11.243723722734444 6.672058933002906 13.720367984528876
Sb 11.456998789113207 8.943224503257616 7.935042035199521
