12
Energy = -46.40698171 eV
Sb 10.654772096634446 11.826111479305547 11.261603926280388
Sb 11.024301746856048 11.719279954155237 8.391482064298613
Sb 11.934715025704639 9.100101142817335 7.7971915734141755
Sb 10.486827403270881 9.088483148555085 12.182442495545143
Sb 9.724230473790286 7.7732593061693995 6.481427364012183
Sb 11.596183038749288 7.4582949305085915 10.138143432028807
Sb 8.167908319901976 11.794126498222182 8.040999514708888
Sb 7.632572247078552 9.11729468621129 11.826743963701288
Sb 7.32307989163103 9.222464096982232 7.191762616735027
Sb 7.722309055439244 11.858575418585962 10.899472116128806
Sb 9.374776520894999 6.087802865694065 8.881023359922297
Sb 6.982959497400263 7.578841790144595 9.532342890575775
