19
Energy = -73.69861493 eV
Sb 13.415800791315178 8.318163238575757 14.144003281847814
Sb 15.446034639684033 8.417448600626278 16.25139837915796
Sb 11.1897380490838 9.884519532710419 15.076320717880607
Sb 10.825155842944993 11.854226747296707 12.985625241690737
Sb 14.806030700680225 10.734740217482317 17.74747493984952
Sb 15.222817375829058 10.132444821456332 12.908777453877406
Sb 12.074526304534498 11.484377453441963 17.3238917419893
Sb 13.239779253266564 11.567399832938799 11.458530944684071
Sb 16.41326151761203 11.062642284093773 15.399924708558723
Sb 13.179285787125638 13.773370301590866 16.077606637963925
Sb 14.656124250196541 14.00621630368202 10.92412910027427
Sb 10.711380795789157 14.146950177260514 14.757486661278
Sb 12.699381726074963 14.977146789403896 9.126751512503542
Sb 14.44227768759187 15.833322510043374 13.101269023387704
Sb 11.699597257990703 16.502382703619777 13.388117213721037
Sb 10.779952867882322 16.45929237702954 10.704767157605039
Sb 14.25653403425293 17.375446291319207 8.720667767249129
Sb 14.896578571565135 18.126198102769877 11.420270251810924
Sb 12.337265491596847 18.86885536458409 10.321530108118942
