17
Energy = -65.71130609 eV
Sb 13.344209588034914 10.230222833706138 7.81063500887453
Sb 10.634020088156465 9.46281742292342 7.326960739105203
Sb 11.220724857844868 11.895339796970253 8.722153017422647
Sb 11.067271812777307 13.302021968861016 12.62580650014069
Sb 11.696078253871102 9.370830646395053 9.980859777338019
Sb 13.614407138125392 13.605054957721018 11.371931064532482
Sb 13.342809290521753 16.47493119104324 11.611872031644559
Sb 10.657516402562434 11.296732639511886 16.196297165727383
Sb 10.673378902158284 10.549739772353728 13.41971232328944
Sb 11.368307717698068 14.302309937737355 15.268665692232776
Sb 14.77873532899304 17.330202545392062 13.934556201604986
Sb 15.836620124700108 12.990135648008112 13.05907484873923
Sb 11.94346790261562 16.98474205434149 14.072201520382032
Sb 15.962981813798725 14.987441472438034 15.128727453922401
Sb 12.775344581710883 9.703805047486147 15.175618149772006
Sb 13.824182554272136 13.779035410219103 16.65008569243324
Sb 15.030652159629867 11.497138889297101 15.423209356531865
