18
Energy = -70.17750288 eV
Sb 15.161644569386223 10.160810338341276 13.065087181017603
Sb 11.977116993597054 8.761077581010735 11.505052237487245
Sb 10.753810047186862 14.495642906311986 15.37197883771317
Sb 14.524256881286622 9.375141925180602 10.366476171450651
Sb 12.414424891956198 12.177111726778259 15.647919696582665
Sb 10.294628475808867 9.12800853581345 9.277810540989073
Sb 15.084537556651123 13.199407294538064 15.47024126531694
Sb 15.893117997263515 12.892874504681824 12.703348104345679
Sb 9.492524657569886 12.321444645568018 12.505155999463792
Sb 12.316722292623165 11.314575232325646 12.86818413653224
Sb 8.186780477317068 10.68612873482011 10.622266682536962
Sb 14.682528085824352 16.019931809348204 15.229830411566107
Sb 13.377790664258729 13.562312185585657 11.436050384176415
Sb 12.217224047086129 16.399375202694166 13.801758600656767
Sb 14.027858949517233 11.958130068964818 9.165098301313826
Sb 11.342505424658098 11.566445747843721 8.157105455149027
Sb 12.268538083658106 16.581597703784585 16.68105770043661
Sb 9.485663006546531 13.144250772680786 9.764663497812847
