14
Energy = -54.38961672 eV
Sb 10.507238725942614 9.041077228200622 12.266906971463122
Sb 11.393694927178673 11.850405139387883 12.975789530657805
Sb 8.016575882578524 6.986791975114598 12.126577170283939
Sb 6.057489536323654 8.623922403818067 13.253512621456677
Sb 13.646832325082775 9.42367453935468 9.709259871615544
Sb 13.911147125350176 11.557148118774771 11.62721568054453
Sb 8.04637764726784 10.547051429016221 12.03168023672685
Sb 6.4917247542067855 8.659254199673846 10.430605641732752
Sb 10.826934976516595 9.167525010964983 9.4099789183788
Sb 9.549586986015541 13.133378132158043 11.324356038861948
Sb 14.29942401682931 11.321221945144016 7.619884361710627
Sb 14.108029287769513 13.532502785798535 9.530059817608322
Sb 9.798715626873799 11.79084187681769 8.801582702002596
Sb 12.054423862855991 13.073400896568131 7.6007861177485845
