15
Energy = -58.02979873 eV
Sb 15.283973352867152 11.608992032213338 8.01617240102088
Sb 15.359790585663749 9.243779319163952 9.578039915565258
Sb 12.835710687380827 10.508305793565368 8.927560309605935
Sb 16.224786160359777 10.480763261036877 12.023112650823828
Sb 15.06335497137405 13.052990364948176 11.680150916926983
Sb 12.369470518542773 12.417288396592108 11.026386795451414
Sb 14.272945168096975 9.176612349901923 13.61472021883563
Sb 11.758231306481107 10.43734817826446 12.962627779474277
Sb 9.171000046208027 16.136333381184723 12.00001944891778
Sb 14.64149357421529 11.014780698909984 15.810437528663808
Sb 14.587706586777339 13.561525117941423 14.480873749249728
Sb 12.095451375801005 12.294883152654243 15.149131408930778
Sb 6.900789393638088 16.960567005811132 13.527806675390025
Sb 7.8501771917591565 14.272121064250072 13.711950049155657
Sb 9.379113438831908 16.406640279363014 14.835477953638156
