19
Energy = -73.70783629 eV
Sb 18.105742969815118 13.947629763548628 14.926070264095237
Sb 18.388272295259114 15.13603203530401 12.260156060964327
Sb 15.93615603433499 15.278965373816991 16.260423845473614
Sb 13.889602865931444 13.29900253117664 16.539141742028498
Sb 15.848942513979594 16.317539420642703 11.778175365292045
Sb 16.8932932119221 11.858400825127887 13.399198553547787
Sb 15.05671811262209 17.24152532046063 14.371415259777358
Sb 14.50331994695339 11.088447913260493 14.78335313176916
Sb 16.15702761016605 13.543381215393621 11.164947061664652
Sb 12.31121903639845 16.781886708008283 13.863907912987955
Sb 13.189228066853225 11.081806210699222 12.232589486545258
Sb 11.607666280510829 14.965804712208042 15.915352139563202
Sb 11.03255043010412 9.500561752703302 13.171866802754401
Sb 11.944249649870745 13.601822999121897 11.71758393141977
Sb 9.97715236213681 13.980950981918417 13.728703504812314
Sb 9.08457085504787 11.337581173780885 14.262773494253356
Sb 9.730852908366181 9.614147145630419 10.592394766935248
Sb 9.967201188875288 12.409609235151784 9.968226628515708
Sb 7.811427414931275 11.51871714382352 11.668620333171203
