16
Energy = -60.67032003 eV
Sb 16.224841610465695 11.76950644407869 11.498219217441074
Sb 12.987195018604316 13.081851472206251 8.768220260478616
Sb 14.212561611695852 14.008567354905963 11.20098525817015
Sb 14.425117894618282 10.303327398796563 12.730834961513262
Sb 11.643383289771295 15.343430506271913 10.124054176997644
Sb 12.227779528306788 10.732655102998457 10.230985906495905
Sb 9.870470617382397 11.9288543899358 8.994900289014028
Sb 12.51982645293457 12.707378612489654 13.127735425729014
Sb 10.751407328402028 9.363219824546313 8.087194573803954
Sb 10.91808725409274 8.225139999528642 12.581174897126553
Sb 9.587563870408761 7.646447761208651 10.10061221215849
Sb 10.244566449692826 14.234095660112864 12.219843633240025
Sb 9.818446995294392 10.706262833486361 13.554174311423129
Sb 7.24737676356937 9.030585003894537 10.907541136122324
Sb 8.173196820050919 8.255526013388518 13.53623636982083
Sb 8.249286578803119 11.798994282178079 11.458817420941442
