14
Energy = -54.55170249 eV
Sb 14.560873428403172 12.708283319602181 18.31947582891765
Sb 14.594804898237278 14.548958091786893 14.21506278015543
Sb 15.232354794987504 12.763616077052133 12.021272212850148
Sb 12.290881040684646 11.753887227454484 16.83378744872258
Sb 14.851684717409157 10.489869272038899 16.512062871873002
Sb 14.240404362249086 14.5394864911061 9.990155774245297
Sb 16.19734390523062 12.96749190247427 15.977911969138328
Sb 12.635247613249755 12.724151383435464 8.473908042366176
Sb 11.974165911727038 15.981371685070016 10.97563659189446
Sb 12.005377394154582 13.301222758784856 14.44837328400328
Sb 12.959054017032472 11.142345963241898 12.790123335681931
Sb 10.646867405365873 14.889217724921354 8.632678996883595
Sb 11.10174270193821 11.540735395887435 10.598827917209118
Sb 9.890083283802298 14.03298400013574 11.302282937781667
