17
Energy = -64.70966112 eV
Sb 11.506936450467595 10.790027889352709 14.310497200676616
Sb 12.681364171288829 9.088774249857712 11.490741397159377
Sb 13.119595174890929 11.864970332510588 11.005509872558067
Sb 9.679479815776345 7.043700519735103 12.752729874583629
Sb 10.347608045059548 11.888436855527862 11.920436869874182
Sb 9.450667054316717 9.026509629352901 14.9821281086018
Sb 12.878118563678337 11.990341647405872 8.151614622816135
Sb 9.487269120531414 14.074806329135253 8.129879252288749
Sb 14.838006059668677 9.972576502586943 7.46225438951972
Sb 7.407060871768102 12.982374394163305 9.756178279851206
Sb 6.939773549792819 6.560869726233475 12.883176815003788
Sb 7.709259304324407 9.302599991974668 12.696633870538047
Sb 9.9307472493428 9.315636073017144 10.564582259094596
Sb 13.540762455668329 7.89276018856485 8.959090679496365
Sb 12.050768842108544 9.460700786943237 7.060829660580631
Sb 6.806691839023908 13.928330252582478 7.114418642027211
Sb 8.352070087721488 11.543006880633094 7.4712841335832305
