15
Energy = -58.16884958 eV
Sb 17.818017879387998 11.550761249556189 14.481871592614054
Sb 17.171494000361523 14.277402724321728 15.08097061309856
Sb 14.703737066773073 13.102634449154529 15.894697152316507
Sb 16.7523398197427 14.659500025387526 12.24062344205852
Sb 15.246762533097579 12.300925257506316 11.528232301970915
Sb 15.019653145114082 10.93988891416107 14.039432182459182
Sb 13.892723404619424 14.802386492404095 11.86502061838509
Sb 11.640360524495518 11.338835888010337 10.7804399915934
Sb 13.071242841703116 15.033658161581148 14.600856699884607
Sb 11.31836904209126 11.00681909603906 13.577100846026108
Sb 10.634690907867617 14.003733555185022 10.206724398488321
Sb 10.638088580245563 13.497264517294036 14.755484154750583
Sb 9.084016448778144 10.476968738397545 11.866060269821737
Sb 9.49802521028784 14.9807383990866 12.623682673163561
Sb 8.01023372049501 13.08473168941229 11.123097696845406
