19
Energy = -74.19562188 eV
Sb 16.223879086704173 9.383482468562466 10.517459768387205
Sb 14.36950310575206 7.818010315673768 8.904413095438633
Sb 14.919413252129639 10.581426048208591 12.756425185888258
Sb 12.924667568213158 11.825880705617239 9.121125966646314
Sb 12.301527763701277 9.447367408741792 7.713326516080624
Sb 15.302564689295293 7.758328874516632 12.766371228739144
Sb 12.271693885940877 11.21133187156361 11.840542951186684
Sb 13.08411464176837 6.706094133094324 11.22108143267538
Sb 10.350962166338014 12.806638855291325 8.303282063407686
Sb 10.061268186345352 8.431048996298596 9.220820740079644
Sb 10.634894991052775 14.335896229499483 12.886237095734904
Sb 11.081274277466022 8.617315873801914 11.881095938103716
Sb 8.440508595231641 10.81637903958813 9.066837109033212
Sb 9.731635960970024 14.865376680543159 10.211553476320958
Sb 9.481272006501161 11.843358976203138 13.742300350510405
Sb 7.043217460648325 14.132593642804858 10.872429199914658
Sb 7.961779415217241 15.527610923441237 13.268744462119066
Sb 7.446806714337349 11.404817532664378 11.778288108102377
Sb 7.085301679919418 13.203326871417056 14.643950759163305
