10
Energy = -37.48739603 eV
Sb 8.086665381898419 9.95892153072842 9.20368618796262
Sb 10.124145086895878 12.16332776190562 9.480168629673456
Sb 13.093762174756353 13.234702367718421 9.884982007978852
Sb 11.53743987979035 9.696222803141142 9.062510347450832
Sb 13.724600035006338 10.59658262941183 10.794748664163098
Sb 8.19821785466599 9.4565799456579 11.89383519770056
Sb 10.75839328690017 8.245291668778968 11.461090820873903
Sb 12.369011661542697 13.795720318863689 12.475425513253487
Sb 9.839112605943653 12.160896387483902 12.334629611883896
Sb 11.953500736521889 10.376603290231724 13.093771722981156
