12
Energy = -45.70572058 eV
Sb 9.095932688845027 11.311657705359174 10.040961519924135
Sb 8.723072973125307 12.335270090885984 13.672768123482008
Sb 11.774976119847135 12.547864156983408 13.515037296946298
Sb 10.25548141733459 13.604501647169378 11.328865207495019
Sb 10.339203960250124 11.850407546359063 7.374990225200803
Sb 8.33379758422524 9.865814550114916 12.637699491051947
Sb 12.096534738379427 13.238381822809849 8.811447269903812
Sb 11.173828294173502 9.383906160342649 10.5094126781391
Sb 11.427839203138719 9.67070589664532 13.305047863789078
Sb 14.437768323315082 12.009729877053843 12.178238511488958
Sb 13.65909988794776 10.686597423082091 9.777136367279313
Sb 14.317937099504773 9.251163621643906 12.387545848088193
