17
Energy = -66.46822516 eV
Sb 15.737614217518287 10.554832453848045 8.298574618583062
Sb 13.802829255779164 8.853215832139975 7.033953053807327
Sb 13.149407671842637 8.75696754535981 11.191762365161548
Sb 11.561567678733406 9.036781095755222 8.869304331297208
Sb 13.659703768321888 11.7156171321643 6.658517785039171
Sb 14.886172931985778 11.016433223822382 11.011838097732976
Sb 10.93319497573558 9.521011009781628 12.904785000608092
Sb 11.375607830498355 11.882654745699947 8.509332325323363
Sb 9.295702058925587 11.07893940733491 11.132687940045306
Sb 12.221638736501482 13.87284734466206 12.746101412323906
Sb 6.932866814921708 10.221252122376313 12.604714198335957
Sb 12.209544049784542 11.55225661147415 14.4486034454415
Sb 13.303429204652272 13.187240231736025 10.146023581224037
Sb 9.31029620458902 13.66946872545496 12.363132266088373
Sb 6.178525728252749 12.821944304213996 13.44193531495369
Sb 9.721614471414219 12.913967304722824 15.093514211106585
Sb 7.472536559299664 11.096823068210272 15.297472211684388
