16
Energy = -62.42483015 eV
Sb 16.196087699637467 9.309006906261155 14.15567062889647
Sb 16.03197345054295 13.343472357973093 12.678850556468417
Sb 15.981815856445465 9.365095930806504 11.297557324337642
Sb 14.520006044544639 11.826538819492226 10.841466016114728
Sb 15.592268815315007 11.9498632613887 15.131138820117583
Sb 14.033525629112733 15.45784462980803 12.400908638795128
Sb 13.761824518892412 8.396917111974211 12.883501153002916
Sb 13.663074868259834 16.025692982773638 15.187938814394123
Sb 12.295216058157967 10.89109404751373 12.412739698759102
Sb 11.93408626283101 13.894003327410386 16.096953707745854
Sb 12.843368396008769 11.296952389982495 15.17126940381795
Sb 11.592186471632848 16.90596811491907 10.666712233166423
Sb 11.000912890521668 17.197506036336435 15.040461068691979
Sb 11.482857370209933 14.255282696269209 11.780312152493222
Sb 9.948218462193566 14.664284713302303 14.16398097116306
Sb 11.361220304906807 18.692706740617666 12.665271985327376
