12
Energy = -45.02012899 eV
Sb 13.56284650945549 13.021021281106973 9.432498221473878
Sb 12.44028757244978 12.918622449123507 13.273290274807337
Sb 13.949638339380904 10.699457244435893 7.910871743835364
Sb 11.765496930387641 9.70066406566907 11.124032067001837
Sb 9.212746289604555 14.351831837677203 13.509952668502553
Sb 11.356133725381902 11.414514788336497 8.570866123618918
Sb 14.207949304499115 10.961755742204131 11.477166278607537
Sb 9.984840070449733 11.426194564235034 13.04693086758262
Sb 11.508798774881734 15.44900977369461 12.20252378924222
Sb 11.471189476788947 15.051904117760671 15.057165366835468
Sb 12.908646155398674 9.121176999481571 13.886483983992727
Sb 11.0884995255737 10.326575421469341 15.459866573119827
