10
Energy = -37.76766433 eV
Sb 13.068298520128034 14.845252676521675 14.49488185100573
Sb 14.675034391909909 12.569960173476625 13.699584617164184
Sb 11.083301983914078 10.205204620873992 11.21475328660082
Sb 10.596397361269112 13.426513476064772 13.9306665594432
Sb 13.771851097265978 12.80902794081452 16.405893076818433
Sb 10.853586157890055 13.059820579012747 11.02860506142699
Sb 12.270129570185352 11.160923448186578 14.523725438716648
Sb 13.371746341708143 11.690557501519761 10.332813963934036
Sb 9.950671196277682 10.894378604089058 8.647744155854621
Sb 12.333334599416965 11.767522185202301 7.65894329477594
