12
Energy = -46.41134997 eV
Sb 16.097566603222802 14.861429349693509 15.380318595134854
Sb 15.000215103053256 15.007053380243097 12.732004993343166
Sb 12.209664746819966 14.362709991866124 12.97874021212655
Sb 16.458282933086206 12.677256209002252 13.544667248869386
Sb 14.897236015355695 12.307014345270417 15.918846988528612
Sb 12.152164866896031 12.483488480403134 15.09993703790793
Sb 9.58447368251162 12.554601270444856 9.410650385307406
Sb 9.649969809366832 11.372176615072352 12.0595698575562
Sb 12.504284951170735 11.568461626769247 12.397120752212444
Sb 7.882007115347835 10.363582306577875 8.5679985237025
Sb 10.694864119073602 10.21325801822447 8.124766348752845
Sb 9.54642015396615 8.94067629009984 10.45436990533122
