10
Energy = -36.93990341 eV
Sb 16.444103761879234 9.637409117777393 10.91063869538567
Sb 11.014177690721533 14.468641642999609 13.337725050002433
Sb 15.561893242389019 12.030216693655836 12.136536479831564
Sb 13.038634459697807 10.68940846818504 12.912000682922145
Sb 13.125444684851717 12.02540290703393 10.437805513825477
Sb 8.166160042074836 14.46363953346882 13.21931322134249
Sb 9.568780137577496 12.071493905072035 14.069955372471796
Sb 9.904556383203849 11.101463889852225 11.36933300309979
Sb 13.638472574794438 9.167335827220622 10.509956756280147
Sb 9.7003773516109 13.928192663306447 10.816900983428397
