16
Energy = -62.67674208 eV
Sb 14.942389139580913 14.095616303493204 12.265987884025597
Sb 17.105197575599064 15.766148066463696 13.267603705373228
Sb 15.264759518498979 16.994109749915225 15.1485813201782
Sb 13.11864485123332 15.31311561885067 14.132731813724913
Sb 9.339067283105013 10.488951764266996 12.666312600963048
Sb 11.707014794772967 12.0947972190382 12.311517750885772
Sb 7.787118703231424 11.932960813049137 10.737605464278706
Sb 17.21733736312909 15.109744096403304 16.04715903263488
Sb 11.506259245668277 9.473969673731819 11.139590818689022
Sb 8.127175109457793 10.602775331113474 8.21565497493464
Sb 13.064173463753056 13.42894632043882 16.259790296554968
Sb 15.809987315222225 12.621226936814244 16.308014911656986
Sb 9.664035667959167 12.960901215237927 8.823711809574732
Sb 10.97932606656184 10.432914804397724 8.488391403450722
Sb 13.046305002828372 11.016176648473072 14.608108729075871
Sb 15.699038068928248 11.698195155943376 13.602880088767664
