12
Energy = -46.4882168 eV
Sb 11.2418032210158 13.640303347626087 13.207740168454887
Sb 10.361855801593311 12.208313901357066 8.802109728566343
Sb 14.386371074558552 10.362254021126194 10.227830110000914
Sb 11.882950512185797 9.203579745352753 13.391757813847526
Sb 10.330923400310269 8.692002877493232 11.06299838847485
Sb 14.485816827157455 8.462470593489533 12.396230074476396
Sb 11.937125248032928 9.731565072497402 8.93121778753291
Sb 13.850270107872465 11.221928660396285 12.91105421532591
Sb 8.508233313092573 10.94153893387865 10.579115200245939
Sb 8.580004723848514 12.620756851502348 12.868993435394945
Sb 11.61494318837641 14.182598260932906 10.423454648826384
Sb 9.284482650743533 15.201854635504285 11.784893398088567
