18
Energy = -70.72822959 eV
Sb 16.570530205671925 8.46407880228087 10.978794535840589
Sb 14.83041820663198 6.790108767672624 12.552316142979763
Sb 14.777017500191771 6.636428155008474 9.655956554896774
Sb 15.352032061266407 11.070933343888234 10.884699523091628
Sb 13.781722016596763 10.645674244164137 13.212567376160422
Sb 12.357698973311905 8.306383956569562 12.508542731319912
Sb 12.312432603905366 8.16262316670537 9.63182152495623
Sb 13.691778588145397 10.437275072784722 8.67108264782319
Sb 12.466644172200768 14.231769978526088 10.916583180057357
Sb 11.489962366717178 12.312808539910975 8.97839008156366
Sb 11.595802652941044 12.582046663209876 13.1100898293487
Sb 10.037089758827186 11.082667196671526 11.171625462932846
Sb 9.83014605894862 15.449562224430466 10.755340833829765
Sb 9.556315675129998 15.900984486210326 13.571796825293363
Sb 8.181358374600052 13.129838662280912 10.342749297142522
Sb 8.191760064279363 13.724199760804595 14.836573391883258
Sb 6.44246122023077 13.302799574788839 12.60681460370638
Sb 6.687450369374182 15.922438273063243 13.766876326144155
