11
Energy = -41.53812356 eV
Sb 11.457081927937516 9.13543800656009 14.486568673959619
Sb 13.263703219675172 11.361968623028497 14.036022203544693
Sb 13.100323701575208 7.653667193621912 12.694574743102383
Sb 14.456910537190547 10.004942904552529 11.841719029102757
Sb 10.388613583182142 11.416009585242767 12.991297831506671
Sb 11.94604516395532 11.027247080093996 10.628835304433158
Sb 12.42424604304001 13.862679746459317 10.563897118833774
Sb 9.626394764546813 14.593545423841455 10.727781617854102
Sb 8.326465210625209 11.988287550321692 10.684659885098348
Sb 10.78103930463747 13.927259570223386 8.164242490460886
Sb 9.832684011997804 11.188876675538236 8.45234758610549
