18
Energy = -69.74537521 eV
Sb 11.417754149512763 14.35339614714857 9.618241813611354
Sb 11.390115914551181 11.485830593110958 9.209372378806851
Sb 10.806412243715018 12.641860445639695 11.806790828212819
Sb 10.328543026037126 18.484187608857162 15.230049988796424
Sb 14.314410498609556 14.215125533931387 9.544252544885055
Sb 11.123867611470805 18.42945774255423 17.99599370160762
Sb 14.245875758624944 11.335087508473782 9.873823664391542
Sb 12.92945151268904 15.920198244741815 13.288690076668995
Sb 10.454694552834056 15.987888439820862 16.64367698161799
Sb 12.988902049682556 19.255471750818117 15.975533640866765
Sb 14.627668120416363 16.97958811629221 15.356031216626237
Sb 14.97689753788699 14.128737430549998 12.352399430199478
Sb 13.432688020738867 11.724329658856513 12.640750073883606
Sb 12.948357018874505 14.761457254010777 15.910184300012878
Sb 17.790082323094847 9.273395820412645 13.35924483162469
Sb 15.750686443341325 8.292872337329136 15.099622656313258
Sb 17.369597532553986 10.501891969960129 15.901891148855752
Sb 18.502768196001444 7.88507332103759 15.751456565397351
