12
Energy = -46.53898617 eV
Sb 13.712741929679337 11.069527333817517 13.210573532229404
Sb 15.992636301207062 13.071006654997182 14.3487619622211
Sb 17.16878950223038 13.742675098174589 11.905727982269967
Sb 14.2873195477307 13.152240140930811 11.264794217612852
Sb 15.079951675323963 15.373336185475818 12.98929873056525
Sb 11.634906399326178 12.781856434433891 14.116981013990973
Sb 10.313340366074204 13.665252953721154 11.683271001158472
Sb 9.6839510032739 10.668567435875664 14.457353440859245
Sb 11.813184341074942 12.503530474764185 9.56024010699082
Sb 12.40107608777722 10.021227859006846 10.711018432297113
Sb 8.332281015401763 11.588507429276675 12.047418281634288
Sb 9.950860157961234 9.239508056250182 11.974881876831379
