12
Energy = -44.5252581 eV
Sb 13.378173782603417 9.93192436668074 13.391895306591838
Sb 11.027417750204489 7.721363355444909 10.891583699168837
Sb 14.552710210413908 12.52273350916055 13.304519837522546
Sb 14.111976581663113 13.288968782307661 10.578867990923891
Sb 8.89153670725656 9.66035445148862 11.649549077578442
Sb 7.984976894196508 12.730216224997903 12.334926477599183
Sb 12.215199630703113 14.265222172588578 12.534735687472594
Sb 9.545368953164488 14.217897612807368 10.754786067052304
Sb 10.628600962424677 11.26775464160516 13.291701078218448
Sb 10.827055639508888 11.480710555207317 10.453181989912585
Sb 14.347081539305108 15.935995417525504 11.607696121761382
Sb 13.162881207723723 9.47216141683731 10.586443756244709
