18
Energy = -70.93850696 eV
Sb 19.092234285215856 12.644986201059513 13.410883201261575
Sb 18.34444375899123 14.312122226206997 11.161961254941676
Sb 18.481722670842682 15.4152249758654 13.791355328473012
Sb 15.368764612200845 12.762107313918317 15.545455327723904
Sb 15.726610961935524 13.026023920162462 11.088404734654782
Sb 15.770030982104782 15.467471115228882 14.734042388200415
Sb 16.466657034900177 11.376108061849644 13.32396733882657
Sb 14.25347703538136 15.130106146707368 12.321813731670954
Sb 12.803762533662503 11.270237322639424 12.383603610179394
Sb 12.82279551454936 13.434223095043118 14.22731204700757
Sb 11.054322248062 12.711440722394482 10.533404853710977
Sb 9.803781525431962 10.133966311401213 10.739114380177215
Sb 10.478939695930944 9.845445527971995 13.496587648983748
Sb 9.605658205614134 14.135085656107663 12.524149925193434
Sb 9.236964196695444 12.161549876648248 14.579639668696638
Sb 7.014487887911317 10.797663695659606 10.877275884612677
Sb 6.932014169909475 13.584973540438103 11.494989488623148
Sb 6.55734412476027 11.605275734797976 13.580050631162182
