10
Energy = -38.40129123 eV
Sb 11.262557974305777 11.630598013312307 9.861277856380141
Sb 11.196280262309578 13.093490657681317 12.323179626328033
Sb 11.004664615084375 9.092431037622212 11.241099754469033
Sb 13.283793907495996 11.434627316041645 13.462585744291562
Sb 14.739672667281472 13.85307017308528 14.159061063607563
Sb 8.377393423619624 11.284792260001963 9.665319203643348
Sb 15.322901151272768 12.519932312076607 11.716366380033477
Sb 8.746821054298616 8.431154963321472 9.533880226072487
Sb 13.503182038203656 14.769243319856006 11.724216164146318
Sb 8.28412778619632 9.658827922590818 12.05742153558267
