12
Energy = -44.75581087 eV
Sb 7.732802797286142 13.152335862714574 11.329090380998347
Sb 8.537716229474828 10.942452096107873 9.672858309290012
Sb 9.01766242028691 11.872420329304738 13.649007615366179
Sb 9.703401321018788 9.557738731107124 12.000013182456058
Sb 10.518798376683142 13.811222421970538 11.952257407007645
Sb 11.404991138909608 11.447712799802328 10.479361128128058
Sb 15.254905252829325 11.494870360929397 10.633463601708986
Sb 13.268576676367614 10.783756050191268 12.974984097428484
Sb 14.803517422438835 14.20795038363936 11.547481962607801
Sb 13.089626089246684 13.502427241100982 13.918464702003112
Sb 16.164623304144005 10.822385422874317 13.332800691422621
Sb 15.974439354045032 13.589372860410624 14.142513022235281
