18
Energy = -70.82393189 eV
Sb 14.465148971037895 16.657588207159442 15.021228432055452
Sb 14.866782497579262 13.90361768889182 14.183742244377726
Sb 13.999958515479523 14.423542838092356 11.503351633644279
Sb 11.944529699311953 17.38964369765626 13.863824479893575
Sb 11.952356796573994 16.0163061623213 16.368559563357387
Sb 13.233444693789197 11.761487667805024 10.594900282867767
Sb 12.68181021328778 13.267174610883767 15.93144240218857
Sb 11.426392786661882 15.635549963290238 11.663638341592762
Sb 12.919782020412987 10.493882433609855 13.128295507674292
Sb 10.714396078749314 11.818352126290824 14.403814574538561
Sb 13.043327576326075 8.7283902762861 8.019933280584935
Sb 10.48526495218532 12.321872696819042 9.990526441393756
Sb 9.603879955777378 13.557864634601954 12.427892110752529
Sb 13.084577135749466 7.251906578795354 10.479204971946789
Sb 11.168964880494759 8.396023120778816 12.261403519224762
Sb 10.173825426318606 8.864029986021114 7.927055096345671
Sb 9.337600111960372 9.75809634080513 10.51183241348593
Sb 11.469433143292644 6.326146424879843 8.290830159064516
