13
Energy = -49.99499761 eV
Sb 7.683095879170853 14.575373818533004 9.14798417311977
Sb 10.86574614452728 9.513740137708194 8.850650798553772
Sb 9.541043629325726 11.862412506679663 7.773075879213264
Sb 10.510598438337327 14.151502858391465 9.271543100810957
Sb 9.12484597163948 8.702039228981532 10.899158565089952
Sb 12.691869295220409 11.099360970464213 10.58726172124026
Sb 10.774941222924294 12.878010153055099 11.824578565867567
Sb 14.23646847676832 7.477171925369289 12.442260519767489
Sb 7.172733782259069 11.750415165231772 9.379873495366944
Sb 11.78212512916428 9.033334727837083 12.409772017495621
Sb 8.369689807904003 11.267754582694394 11.927072343618025
Sb 13.773403734053698 9.186022058756087 14.683983045971193
Sb 15.139037339973523 10.168460717565866 12.468384625153014
