17
Energy = -65.94985043 eV
Sb 16.247715552800646 10.873430134245751 16.675799826333837
Sb 16.113641123247547 13.71289820473186 16.37981983691471
Sb 13.723951775817897 12.15871259685096 16.246242803238747
Sb 15.538391809613564 11.81479881687898 14.055268941072706
Sb 10.2992692791084 15.683195867965033 12.828976375910864
Sb 10.440155943357015 16.21180262291425 9.985275549180557
Sb 13.406507464541628 13.390510304998031 11.306244406641955
Sb 8.161569393702724 14.950703914372736 11.178206285843293
Sb 11.255362269361223 12.811834579518441 13.100462426133031
Sb 12.037490716772199 14.069496394291644 8.896176357494207
Sb 14.20128917794072 9.372485706246971 12.671986673604387
Sb 14.164898028497317 10.857248582686248 10.237241049646986
Sb 11.585219063920036 9.76573844505708 13.633911427388837
Sb 9.01894072335494 12.058867871915087 11.486932145419743
Sb 10.044436140023132 12.04391461984176 8.796621414920255
Sb 10.059807220546283 9.117631502644796 11.408430625102344
Sb 11.745762665863268 9.738091956316957 9.127187331635488
