17
Energy = -66.13966327 eV
Sb 10.413604570931986 15.58666051080412 10.482643469829915
Sb 14.167527388581064 13.104745842514516 10.710669655468719
Sb 11.295014238554499 12.896812978794108 10.688905130260368
Sb 10.886051369038354 16.829654333255277 13.04851524299306
Sb 14.475719598622417 15.181503663103568 12.699857097253236
Sb 14.015674097763158 10.736365836558964 12.258742661078642
Sb 7.779869539915531 14.776250965829503 11.363421198245543
Sb 12.294234662257109 14.856138307136927 14.527017629653384
Sb 11.138739105013203 12.455257725487186 13.496204256760622
Sb 8.251195302996813 16.050584348444687 13.939621427988957
Sb 16.448570884121924 14.256825546688594 14.596458979233699
Sb 16.761762869519266 10.151667757454833 12.599320729325385
Sb 8.346391497223664 13.199330199522471 13.703127310679712
Sb 18.275852187837355 12.532840897027867 13.255058729642132
Sb 15.56259362365835 12.2388907460781 16.44213262141509
Sb 16.14728713847283 9.651791500205881 15.355295529843856
Sb 18.326924764811768 11.455478107092668 15.988063778616185
