15
Energy = -57.57234925 eV
Sb 12.217013352030285 10.590271629310275 7.9335308637918045
Sb 8.935276328849394 12.192393689437829 9.035055597146206
Sb 9.574972872687066 9.46503894174557 8.358422139032013
Sb 13.700741558326879 9.5115062204557 10.047848452131756
Sb 11.897667935671546 13.240948176088313 9.088884689308074
Sb 14.727771688351153 12.153193861932916 10.344335628451436
Sb 8.957091932137237 10.206845809836466 11.028173132439477
Sb 10.879189291203001 13.271694310738024 11.81256437972014
Sb 12.469711596036664 15.008636441199423 13.452965136226648
Sb 11.75654606330187 10.636146131851435 12.358141707292187
Sb 14.618409239103496 11.259400585960126 13.005102728624761
Sb 14.573774818977189 13.49412775513452 14.713792835465924
Sb 10.592324617281266 11.142752108338513 15.063249816273336
Sb 10.70620801076058 13.98858685613867 15.529041013110843
Sb 12.747067031460594 12.192223818010959 16.582658217164138
