12
Energy = -46.45381678 eV
Sb 11.838664201221574 10.843566876622003 8.342946830339129
Sb 13.411397399032447 12.42358934045897 10.15278051309047
Sb 15.049644168302377 10.104607589724134 10.701442333297647
Sb 13.453552352325316 8.507954800767925 8.871071635647217
Sb 9.629087211375618 9.939057201592894 9.891501142404003
Sb 10.79636327865071 9.72233698974511 12.484882304945776
Sb 13.12321975125777 8.221481169054172 11.713646384213543
Sb 6.834432638810422 11.480679660614344 12.099342121678198
Sb 12.122858137616966 12.231869620588114 12.682330441288787
Sb 8.442647229571596 12.538896385528755 9.971562881999139
Sb 8.379819282543215 12.618030066026524 14.012244101945807
Sb 9.952619610053523 13.966071636910046 12.04331184565583
