18
Energy = -71.32158925 eV
Sb 16.753231087206487 9.409243923297133 13.7516867174474
Sb 17.83358873755045 10.4760554729636 11.310759271631287
Sb 17.550232306161206 12.201389458845464 13.593564756117894
Sb 13.964215787597988 10.220737900974838 13.645861409975865
Sb 13.721453754546852 9.33894325690665 10.949365772115708
Sb 15.589829297089935 11.020952882625553 9.611587107921812
Sb 14.748102666604654 12.976142575905895 13.49729422986579
Sb 14.969967355277143 13.568575563617788 10.721903868005215
Sb 11.439009785890931 10.73809928737412 9.894494272912988
Sb 9.828272556416596 10.568532092120472 12.250535017775725
Sb 12.271918476868018 13.553178419905402 9.730424955326873
Sb 7.648048492238534 11.990991022922579 11.118764905859942
Sb 11.056091158182639 12.610538929400887 13.80924770860658
Sb 6.454586053533221 12.481689851397922 13.70257099715575
Sb 8.474332682211296 14.759660731419908 10.979159070409342
Sb 11.117301787876048 14.822079287663149 12.016124050359682
Sb 8.69160453656982 13.405762635795107 15.260055223830824
Sb 7.299237634333158 15.268450863019387 13.567624820836475
