16
Energy = -61.61582041 eV
Sb 14.56277038922719 13.087917648865838 10.752196640341005
Sb 13.845883843298452 10.67600953419688 14.879201640560293
Sb 17.21734331401699 15.448643980432234 13.056336696232691
Sb 8.136245992534693 12.328518670149618 12.018120597866421
Sb 11.08048142222214 12.663809481436902 11.854262805402021
Sb 7.597039913391859 14.297284384456942 14.070087162854678
Sb 14.959734590775087 10.67349838338357 12.265825153328311
Sb 14.46655749430109 15.551829164826135 12.238846570407311
Sb 11.060040274664404 11.245331112895595 14.36502410004313
Sb 10.787543935560777 14.105566771975058 14.293651747869747
Sb 7.236105174345014 14.94974248564451 11.478508059451503
Sb 17.63470251458468 11.303422066373043 13.09244221061041
Sb 14.670480158906837 13.103244070377349 16.14585675432861
Sb 13.387319694327473 15.301041935835512 14.85702364062348
Sb 17.333677644626558 13.381817959153762 15.109768398976378
Sb 17.510870318268754 13.369119366469024 11.009644496155682
