18
Energy = -69.3802258 eV
Sb 11.040315584751136 15.224507776863083 18.890687921414788
Sb 10.219796221436107 13.41122604837662 20.944990933499607
Sb 9.67681635529471 12.812585534815604 18.205550693972214
Sb 12.490514914264036 15.149288056553914 10.003490679233233
Sb 11.209571095071603 14.388049460724561 12.457081418173136
Sb 13.569778695265619 17.728498027788113 10.580531860547426
Sb 12.513627125955646 15.888742983385347 14.548961272700843
Sb 12.355722441314732 12.707538758919076 19.184600025904263
Sb 13.83356228844997 18.01967992838404 13.221273340281462
Sb 14.77571833928762 14.03522345307961 14.702984291433232
Sb 12.679625751670242 12.284606680616362 13.803943098090958
Sb 16.352187780229134 14.8880909204803 12.472074913659124
Sb 15.262104318701429 14.415374485234443 9.856929018663667
Sb 14.88297062593284 11.620421260532861 9.508449508860513
Sb 13.76844374168873 10.437106752261728 11.893921109485975
Sb 17.919534613821533 12.508256386102847 12.737911900531671
Sb 16.392060177026323 10.074756611626922 13.01845041992311
Sb 17.517531837305274 10.85576771503902 10.435212198272938
