12
Energy = -45.48949437 eV
Sb 12.323142655076296 10.61812064876696 10.36569015542214
Sb 15.209700009212785 10.533747501140082 11.02017546884524
Sb 14.377289428940948 11.7012581612335 13.581464492757224
Sb 11.862893652866639 13.465993429714848 10.102332311946647
Sb 10.454112351889128 9.607187198992369 8.380031594843345
Sb 14.759543091605629 13.289953247824462 11.271641722033884
Sb 12.419088078603709 14.138559218648021 14.782757091384843
Sb 10.60950914944215 12.680085575141261 16.255905173114517
Sb 9.202072326367677 11.93260586626463 9.431832593797722
Sb 9.51171357836993 9.696888960656226 11.090513297963042
Sb 10.48080003243729 13.920160450307726 12.665330864792448
Sb 11.293274183085616 11.434416393210816 13.746271347230698
