13
Energy = -50.52743947 eV
Sb 16.663424647579813 16.84039627719848 11.991707287316475
Sb 14.231023611174317 17.872109157352316 13.019994383054836
Sb 15.883414018482666 14.30877622787725 10.859448225523993
Sb 17.03512665959612 14.40057209838298 13.479677119332392
Sb 13.059205460654553 14.25131488786239 11.280606295251761
Sb 12.722942485017827 15.581599564382966 13.770852972662215
Sb 14.819352790143752 14.394599058271904 15.282050019329237
Sb 9.944104567630452 12.450770445606961 15.078320212613743
Sb 13.343933298190255 11.516602797307584 12.079361616894037
Sb 10.553473322061668 11.153935968534205 12.59098393746974
Sb 14.483551564215377 11.609203687202898 14.71287645876263
Sb 12.211521608181561 11.321056800904127 16.426722117694265
Sb 10.402510257110674 9.607355128662567 15.00323880435493
