21
Energy = -81.96617094 eV
Sb 16.940282176203375 12.540214352866156 10.060737788538612
Sb 15.222068206914244 11.488023036978902 7.963698356794771
Sb 14.602699866473923 8.983112653487026 9.172665908101218
Sb 12.84093914213952 12.918802326553928 8.434493618101175
Sb 15.202686165802836 13.724209915571445 12.001373816306048
Sb 16.02767598737133 11.068699256177522 12.365120779762147
Sb 12.641648765732864 8.51327523214629 7.126941857597279
Sb 11.384712559731101 11.10770508952977 6.755269573366612
Sb 12.538032395315499 12.41370637485248 11.431011889069016
Sb 13.348389274123013 9.675380988906925 11.66056050258956
Sb 11.567905893095785 14.96408752520017 14.800415901500296
Sb 10.042952895033478 9.032339913448633 8.228374376918097
Sb 12.438868525975584 12.291904921319505 14.50782268505156
Sb 10.718804726668008 14.464044063699532 17.522807117847258
Sb 10.251470966876003 9.451768782789882 11.031043449976208
Sb 8.81410608775647 15.009757368429717 13.932680203729534
Sb 9.606592913903427 12.161592234174014 10.686335959413572
Sb 7.940664993901959 14.526854032917289 16.64915725190443
Sb 10.018925370438733 10.84531378416244 14.768712536454885
Sb 9.218234751516123 12.030725012273209 17.27072029127989
Sb 8.187402353644986 12.343547153134624 13.185120154316277
