22
Energy = -84.25794143 eV
Sb 19.825538958523094 15.886050919040748 17.152305606021958
Sb 18.65350313802235 13.969895573171398 15.327155910728552
Sb 20.401459537230224 16.202642206400288 14.34609487023152
Sb 21.383754795218092 11.524092881564899 13.555174747056514
Sb 20.664498683847835 11.998216390427512 16.249420290055387
Sb 22.409394686466733 13.744504251916402 14.879576866187426
Sb 17.925476680728714 17.35206830859826 13.121875418962741
Sb 15.762812399531319 15.467385791364643 13.121610787034598
Sb 17.428522629007794 19.209171134797536 15.241654276390689
Sb 14.540742853812237 19.4272700913371 15.189241961965704
Sb 15.674484590311197 15.89823456488885 17.966586149940632
Sb 15.720283796201704 14.172518436220074 15.686311869913531
Sb 12.153920579898104 14.235437942747271 15.281495891039457
Sb 9.895213511417978 13.09049166611592 13.48664383833983
Sb 7.769221157656239 13.798238949746368 15.26872111630743
Sb 11.432076759256672 16.690871268132437 16.803933244952827
Sb 11.373873154132015 16.71192911731023 13.915000537615036
Sb 13.931566971663772 17.66728611651808 13.010921055329739
Sb 9.930718225210224 13.29362318737565 17.075146352710817
Sb 8.913453711884877 11.181176059927548 15.378146758196516
Sb 13.824225724253825 18.05084388892531 17.59567424390081
Sb 17.772633281375356 17.815427761964273 17.73468505702883
