21
Energy = -81.1070806 eV
Sb 12.842147629158996 16.03120761561496 10.743369376844115
Sb 17.861538788581807 11.627109416461378 11.410646328988447
Sb 15.38956224448085 14.64734747197093 10.521600283217643
Sb 19.20407805855661 14.054465346181054 10.606328063499348
Sb 11.76594953456989 13.35389144644058 11.453938769092911
Sb 15.230836929993615 12.393935438445078 12.292105866138344
Sb 8.896564556878586 13.415634412672144 11.159841706693465
Sb 12.492122569023937 15.237432330090472 13.494165797831158
Sb 7.750368685312812 14.965179954799956 13.31618399549632
Sb 19.744669437555867 12.80576605451617 13.18585782005418
Sb 10.01024804031791 16.214028325369636 14.629356212043547
Sb 9.73677166167774 11.402340834835602 13.04667266313944
Sb 15.795568592848626 11.411100818810107 16.31770741048085
Sb 17.538901927688176 16.090923650480814 11.812758521535573
Sb 12.635710600182389 13.544529057426582 16.351948506319005
Sb 15.556995310371192 13.877865023541514 14.71376921103938
Sb 13.034390531395482 10.742483993489255 15.804634146480296
Sb 8.055388455755484 12.616960374149379 15.00925545976713
Sb 9.806575392453588 14.20467376917127 16.729516218794604
Sb 18.18308176325929 14.920970463880536 14.37645347310066
Sb 13.806157552732175 11.779782464447683 18.361518432239297
