27
Energy = -103.73117922 eV
Sb 14.024371133913709 11.330534644974165 10.092201718239913
Sb 13.625943088518076 14.87082062098229 10.52735438668497
Sb 13.960762153727362 8.585539409513858 8.779611725753897
Sb 13.92942707951508 12.960352644508387 12.580991891860311
Sb 13.20428829199214 9.02119313722756 13.308765487324507
Sb 13.292749569122124 10.224598674762449 6.605744284040888
Sb 8.074284115010249 10.985109371047027 9.98529958242759
Sb 8.020306619751116 14.675864939682711 10.673565076889801
Sb 7.490330362765057 8.652403668042597 8.149461516430364
Sb 7.811208875151726 12.61695079711509 12.530353847867872
Sb 8.790302244557546 8.93172826336262 13.22927800672205
Sb 8.029216000433621 13.02511311344766 7.954865260524919
Sb 8.2337150268989 10.536027088429206 6.195380472775496
Sb 10.838803437172341 14.066620692690444 10.269520545558965
Sb 11.028488948682392 10.798939035093944 9.537241200345926
Sb 9.959110522275935 7.149675522234609 7.670956724328715
Sb 10.817351063808228 14.073292677884414 7.489204139286182
Sb 10.76640541449814 9.148662858329033 5.756642921340377
Sb 10.971234241058779 10.594089171839942 12.424018688410817
Sb 10.879266231735233 13.246594922283162 13.450659358778301
Sb 11.418418235114073 7.89844776026984 10.005836468970378
Sb 11.033713282931313 7.111857725910363 13.811756568532457
Sb 10.916715489144549 11.988083349312737 16.073909073731233
Sb 13.667696630981242 13.135412146719263 7.886250172587813
Sb 13.026070853876874 9.993816060893083 16.04291820839322
Sb 8.846557419984427 9.95673228926834 15.950351976121674
Sb 10.946225727379593 8.02450123397354 16.620822756070858
