22
Energy = -85.9978401 eV
Sb 15.932353709797749 8.395299343605517 13.116640799549605
Sb 16.635035081271727 9.61226517460379 10.553236035592626
Sb 15.453174476989508 11.07991540787722 14.034721724840681
Sb 15.344139213516668 12.111586926693086 11.361291062070954
Sb 13.457283360509265 7.898933483396123 11.758132331655345
Sb 13.830526002436594 10.098489151961568 9.954419818792037
Sb 12.744036383874851 10.947217077297745 15.020783114005129
Sb 11.586700729348937 8.589500264412955 13.804495320260989
Sb 13.423942638130043 14.781896374281532 12.668234377878449
Sb 10.631535064490734 9.092194205803402 9.148834237621562
Sb 11.798832748265099 12.39278518030429 12.731624745662215
Sb 11.380262922348273 15.632530520316209 10.77462667616181
Sb 10.65668670061472 11.742850856958015 8.002440518164581
Sb 11.760576263040882 15.95350879356839 14.77463843583311
Sb 9.51863030695465 9.17470248394864 11.76694195903866
Sb 9.909391099739999 13.75401574746485 14.509926855533116
Sb 7.853149014574026 8.721895404931349 8.382184946283445
Sb 9.528199935568537 13.589658832977179 9.849750026227005
Sb 9.527450919454546 16.134702136815363 12.92562087250223
Sb 7.906695498959055 11.367656320772292 7.1827401395728305
Sb 8.359748084359016 11.79954487833128 11.782633444574861
Sb 6.561218541673562 10.92842012959815 9.695651254098031
