28
Energy = -108.73444675 eV
Sb 16.99783934420201 18.607613708806767 12.283928981247943
Sb 18.65074932844119 16.37250044434274 13.174233349543192
Sb 14.27444447756616 18.8663534796688 13.34926107595858
Sb 16.508011188860486 15.744487976588612 14.95452458061617
Sb 14.814408592687007 17.26383779049751 11.022733302810222
Sb 17.52041141799923 14.345479216387785 11.435321668740885
Sb 11.034301980451856 17.955718766114355 16.42871985564187
Sb 13.289602372745692 16.70227353092778 15.109349736677524
Sb 10.643457623749022 16.66768233858381 13.918460442995968
Sb 17.39920258363505 13.085490131181832 15.632446220721357
Sb 18.303408875503706 12.080667187028151 13.069379916850226
Sb 14.886776069394635 14.830842062740906 12.666000628013657
Sb 10.696809103873857 15.81168927428042 18.351113750074834
Sb 15.47071213050531 11.858717900867024 13.864204546273841
Sb 13.34972086930658 15.959307140110717 19.426903950303956
Sb 11.65406155950092 11.883194920556795 8.920343624661205
Sb 14.308391510751074 12.27073033614242 9.961851013671737
Sb 9.607299986869258 14.032725743840027 14.513303565500047
Sb 11.70826486777351 12.613509086501825 13.06552236434885
Sb 14.931645790543842 14.043337975975064 18.41040322594094
Sb 13.428376770106992 13.193202016068723 16.151537938636437
Sb 10.698591737530023 13.253058537781216 17.057937207846884
Sb 10.18892387103997 10.964418152626843 11.212323052245829
Sb 13.700634739425196 9.942158015240434 8.369644340616341
Sb 14.44144074333595 9.648026890222928 11.145101077686414
Sb 11.557337085104837 10.20505596910507 14.675854440665383
Sb 14.11866565184702 10.346031354569673 16.010776952472078
Sb 11.86869796137325 8.827073344220853 12.110534312389623
