22
Energy = -85.10613049 eV
Sb 12.563590622608565 19.095558213053145 14.555248789366658
Sb 14.045070816918326 18.152128179633852 16.557547588929175
Sb 15.713060399474694 18.701066232502342 11.903639616691448
Sb 13.11523655826996 17.525051781201537 12.231488485907638
Sb 17.315218335258802 17.548266319560433 13.989539555132971
Sb 15.504732267217065 15.919290536546255 15.541597887819238
Sb 11.42797832959055 14.496338383825947 14.524092151312438
Sb 13.979182290183005 15.021911201673333 13.291050491611376
Sb 12.901750096683143 13.493515072149368 16.778079785600262
Sb 11.546833700110568 12.357641845837668 12.608354833046487
Sb 18.42351769727296 15.212479992702018 12.742224876921068
Sb 13.428943694988854 10.363129553692142 13.492683137752628
Sb 11.612882425948982 11.120999338250655 17.74903939751718
Sb 18.866225605099647 15.920298535403832 9.9934367293449
Sb 15.028161688448094 11.916504416933842 15.661269833994723
Sb 16.21297522334094 16.970032016887178 9.668872605833698
Sb 14.334990073031042 10.18210013312721 17.787015374596784
Sb 16.56572940392932 14.331245556957724 10.741951101668047
Sb 12.27106444736676 9.10688393718316 15.76952546842062
Sb 11.1917275973945 8.573744412801581 12.109612212511077
Sb 9.239019885610794 10.629183305837175 12.644884443031833
Sb 9.6860856278371 8.424019468894118 14.436696634975984
