23
Energy = -88.74727119 eV
Sb 14.43613731135733 18.51975868350462 18.106008703022912
Sb 16.09320310298524 16.12677003758092 18.081144001585844
Sb 16.623591740060267 16.647714258376546 15.123838169228035
Sb 12.783461845621177 18.149261383003374 15.766657477896718
Sb 16.535615941520103 16.30705489601115 11.990054489962477
Sb 17.364666916034597 13.596956221284115 12.385405075010821
Sb 17.764494112441408 13.885334768431957 15.221446291782367
Sb 13.932832820890056 15.641504353809074 14.849819082688402
Sb 13.949542678641654 14.411326657777863 17.572423543635722
Sb 15.314276227080176 19.477884999088662 15.566113487480074
Sb 15.784147687459454 12.369504145097851 16.685495879960843
Sb 12.875280333392032 13.758213987448656 10.846867804341125
Sb 13.72408818195092 16.2144049863145 11.853345142326962
Sb 17.140884368728567 8.610753554530293 12.783249856037425
Sb 14.790400567721159 12.303374621824888 12.258856283738744
Sb 13.863537993323757 11.369100748634454 14.83096396086011
Sb 15.53846768668376 9.921404096797152 10.807534375576724
Sb 15.102658359357305 8.786633433122388 14.823552443251632
Sb 10.355698152520898 14.996768599269599 14.927003782243307
Sb 10.04600588116818 16.986568783975983 12.884370559647262
Sb 14.487914924305151 7.667273108292512 12.24935060309728
Sb 9.638260334206642 14.229306911817243 12.28213872266269
Sb 7.7360083051363695 15.69004354816926 13.970623746392917
