25
Energy = -96.67168628 eV
Sb 16.67491593155333 15.577649036306711 12.769996531494622
Sb 16.12191184152905 13.809634231153003 14.945940046567685
Sb 17.192528824228486 12.70641094430901 12.52702975607629
Sb 14.337837239608172 15.33624067153415 11.051298003475038
Sb 15.179643166072088 12.670090462577848 10.421578667548884
Sb 13.354293677742328 13.032491690729058 14.971016015107056
Sb 12.541258163684825 15.197169252760212 13.252943849053793
Sb 14.048979462897572 10.51231902071938 13.706358675525369
Sb 12.780204018952682 11.226654378411888 11.232751637050589
Sb 10.60647972284001 13.620488955878372 11.75988602871394
Sb 13.472264858375095 8.977092541462481 9.537902835895261
Sb 12.391804923811446 8.631149518737251 15.196839576488232
Sb 10.839665724906817 14.641269052387306 9.091707711540614
Sb 12.318682794480567 10.064410024018867 7.134896458483422
Sb 10.33193575413868 12.24945483228495 7.429402739816637
Sb 9.92791305493386 10.662658949975468 13.231533772669973
Sb 9.75491037327684 9.584338760590441 15.889603618589819
Sb 8.327958716355672 15.00535480735815 10.606378068779286
Sb 10.00077000944999 7.772283102485107 13.676271037741634
Sb 9.40783446867142 11.094811745796243 9.811958370301552
Sb 11.116037347992807 7.756954052029581 8.441242469344463
Sb 6.957632318568022 12.455551193003107 10.22139151021339
Sb 8.338333711080503 8.623598910384656 9.028977706738482
Sb 7.024487362698788 10.955063744160332 12.753116383202162
Sb 7.387922852907568 8.273066441702227 11.746184850337613
