29
Energy = -110.91105319 eV
Sb 15.649497031008682 14.43988900544308 8.699821397060575
Sb 13.089136667492353 7.801906968811876 11.264484811106103
Sb 9.237620204305633 12.693314829120173 8.4972976769463
Sb 12.203667700406436 15.064864532945544 11.727610753901546
Sb 11.04116691086958 8.26549468809229 13.221199572100021
Sb 12.122117173266291 10.896293669022228 15.657830752174606
Sb 9.932925105065184 10.391553396395866 10.2014907273377
Sb 13.328414120082348 12.66904749575002 17.619428549331424
Sb 12.510100126892866 15.611338472441284 14.742408611397204
Sb 12.30767553934061 10.521030986680204 11.88792272963837
Sb 16.45530832311187 12.843387320789878 10.953357931564117
Sb 15.979134793003501 11.93702143850178 7.1603562943609385
Sb 14.684320341254834 10.275407415799812 14.466717427466525
Sb 12.97706046661353 13.491174780701959 9.185271912492006
Sb 14.412099509452071 13.516254230580937 12.96108071961338
Sb 13.474974198564684 10.854488740121612 8.1084720051763
Sb 15.46714472659532 16.09141657401225 12.230056205384239
Sb 12.698082726346836 9.974820469354981 18.359975921646416
Sb 8.158441229500523 15.236918226788696 14.184347447639963
Sb 13.71960835180773 7.557211553996396 14.070317625093852
Sb 8.990647206398826 13.855786194937544 16.60745011009812
Sb 11.276701095588288 13.92333455408867 6.980066736459993
Sb 15.309402672156839 10.57925268088683 17.336542252599042
Sb 13.784532847436042 17.810122047989257 13.58885933176111
Sb 10.202346473756187 13.137956371830727 14.017568920579777
Sb 9.255168765005454 14.306842016555391 10.946818230341398
Sb 15.884708143488282 10.351747940959575 9.59345688277252
Sb 8.32312124717008 11.882392103667447 12.148341549459628
Sb 10.028341290533064 16.484368134453774 15.973176213291985
