24
Energy = -93.19534073 eV
Sb 18.85216346019587 11.22692074677981 11.422769929437841
Sb 18.171366726102434 12.647627887111087 13.792497292521352
Sb 17.099367789723697 8.938502794608175 11.343288436812195
Sb 16.906270839632576 10.771958276067181 15.506611887454474
Sb 15.488790235456317 9.122053697439458 13.686772184193405
Sb 16.502375746657904 13.013685688628428 11.522911841702623
Sb 15.406004862735289 14.42972482760557 17.56772525597373
Sb 14.752467037075299 10.740160317481092 11.460149688499362
Sb 16.5781151986451 17.980331832694585 17.641705520473177
Sb 13.866608355921754 12.145848884101715 18.395262042115625
Sb 14.564412771890657 12.477540069617941 15.623365613838741
Sb 17.183307353947118 20.525981865544065 16.480906144539833
Sb 12.594104847476855 14.702465369975592 18.106220159766167
Sb 17.503509842840824 18.134419750167392 14.94747254091744
Sb 14.886076632079828 19.04626547290544 15.604685577050953
Sb 10.950857658520773 14.780121911792508 15.701800151971202
Sb 11.240992775645505 12.291771719191393 14.234989488815923
Sb 8.683947385780671 12.696969933470113 12.978579843521201
Sb 13.122744436984995 13.572979583161148 12.434827544440607
Sb 12.84379531888749 16.07038799735058 13.97462513122133
Sb 8.309644731117817 15.486396605800145 12.51199747243158
Sb 8.989979633596509 13.650000630427535 10.321866324531134
Sb 10.822433696293583 16.892160021747976 12.014286158919315
Sb 11.655400907895803 14.793353381903268 10.236589153972147
