24
Energy = -94.06664918 eV
Sb 19.42824641516481 10.105349000554673 14.285711594675847
Sb 18.29736668990173 10.807556809769206 11.717623844171623
Sb 17.15267548730828 8.685833773943124 13.269744162134621
Sb 18.217611526929193 12.685686783479229 13.878430720651455
Sb 15.004582391495985 9.721905354567104 14.849846837974361
Sb 15.584350374821186 12.521192546982343 14.941642652117654
Sb 15.16196205690474 12.5856087631574 10.106326378517707
Sb 13.544318986493963 10.096342971292083 12.36798697149533
Sb 13.945424476578403 15.422191334552823 6.810076398303461
Sb 15.38898102304547 15.320420797174634 9.290046227076878
Sb 12.734279836326262 16.42624506783334 9.214904766038464
Sb 11.59420198391469 14.153396751763953 7.884162833501048
Sb 12.536857734699518 11.781460550226551 9.170707486613681
Sb 13.830367339526992 12.948453425723162 12.621362171548055
Sb 10.758822632853551 10.044178925822541 13.063780890827202
Sb 10.816874971334148 11.526843191898106 15.506258974899875
Sb 10.222158728346246 11.992725415254029 10.966762609411063
Sb 11.414150786882255 14.220181236623567 14.746862391593034
Sb 7.986856786934009 11.537360418468642 15.402380151525302
Sb 9.848143257744802 14.466834866213553 12.376339707420737
Sb 7.65899325775407 13.585450598648348 17.41797402040119
Sb 9.580418529072345 15.530709755981839 16.582706956038386
Sb 7.356971762476499 13.42543956831362 13.295813979385787
Sb 7.006001513791604 15.479250642056881 15.303165823978174
