26
Energy = -100.08311993 eV
Sb 12.57191179468978 10.939950946901321 10.061563685623536
Sb 15.938474356961853 10.67389156090377 12.754070965510735
Sb 15.100572522178577 12.245126156704451 10.446399190625817
Sb 13.318013426980327 11.181345887920207 13.851411339109028
Sb 17.572083906849528 12.767945830999967 13.912959601780807
Sb 14.118134794484375 11.365366860964206 16.623612284029644
Sb 16.956853002924454 11.84505689268983 16.557609259691766
Sb 10.70026180351882 12.917137818225788 10.236163835190478
Sb 13.790049605348273 13.707265032961574 12.533776317469242
Sb 12.613577218690674 13.636085555765197 17.53785936909162
Sb 15.938477480365362 15.132298562063788 13.827348328343172
Sb 17.74609182428331 14.3060553746694 17.80268360683084
Sb 16.586043222551098 15.798164250692416 11.033611012150626
Sb 16.47127293740858 14.27625540244258 20.389443677823813
Sb 13.721475953010335 13.468177365973096 20.149778810234995
Sb 13.54754787845362 16.110728135565456 16.454313066123134
Sb 16.839617911140152 18.680826913632323 11.259439171806395
Sb 11.594478912330612 15.19093987942478 11.526809728808562
Sb 16.309444733946194 16.685469228901255 16.95013603605424
Sb 17.128996467117762 18.57258050805984 8.433014762293475
Sb 14.19921886859601 17.343959601639256 10.84535024257167
Sb 14.89773470663402 17.056514993605198 8.069411884101754
Sb 12.130946268497278 17.48252492490519 18.567256872310075
Sb 12.273257387933485 15.825568906591991 20.927539855358127
Sb 16.575955877713554 17.096494701944913 19.816197173605026
Sb 14.017087219982997 18.086828671858118 20.657967474110485
