24
Energy = -93.93990862 eV
Sb 9.14465082419078 10.761362619178202 17.196059523162038
Sb 9.93329624327031 12.683984069306325 15.169766759758117
Sb 11.843308674470757 10.209255932921058 18.005783565452457
Sb 11.646896307029094 14.464936491496266 16.626910661114124
Sb 11.143050011541115 10.086561001551264 15.216512369605686
Sb 13.04052564479544 12.767938746651135 18.48714798679906
Sb 13.711012172395911 14.810701076367826 14.608154895008193
Sb 15.517454967948044 12.136427761833854 17.113189191879403
Sb 14.070744483273078 11.943310854786736 14.61730219528244
Sb 16.011811966885293 11.15903969382918 12.684366260501285
Sb 15.888900736749331 14.92826197259243 16.539702339750733
Sb 12.085649188679135 13.27838130147113 12.133723909873394
Sb 10.809262329973688 10.926308677966777 10.931374092575004
Sb 14.674314362048188 12.954473849120573 10.857082672234997
Sb 18.238799847114137 13.033357506443725 12.541568990416714
Sb 12.43239133789312 10.972780676530093 8.588313528444159
Sb 17.641884386392356 15.206884972903016 14.263506932635382
Sb 8.945095049530915 13.00897058447429 10.325690177843434
Sb 16.463406891627063 15.151428519939246 11.611995128961333
Sb 12.561549309988049 13.760780862571023 7.932520306151577
Sb 10.266451096946902 10.62936839227628 6.656202738837078
Sb 8.242800292777947 12.414827882531123 7.598872885845699
Sb 11.012093838054204 14.964770919090732 9.98970362699232
Sb 10.381943417767914 13.453179015510678 6.011842642218339
