21
Energy = -81.13271055 eV
Sb 14.264888992029674 8.52341938818373 9.632248594428978
Sb 14.57541342357242 15.942257091487132 10.806252118932411
Sb 12.01023293298689 15.125655745167379 11.496327696218799
Sb 12.347696498869265 12.410952195587615 12.43756620123084
Sb 12.78164489978737 6.082206723453188 9.328600516203636
Sb 14.205645151134352 6.621511001397578 11.75049430823033
Sb 14.99440726008352 11.81400847224183 11.554738465784983
Sb 16.36240810904424 14.21394132733239 12.245646976300208
Sb 14.368233272452251 17.426251685403074 13.508482959873604
Sb 12.856506542884837 13.496213088770137 15.016521017081654
Sb 12.311787581735667 20.117506852655595 15.2206214266933
Sb 11.86470268036327 8.125864103594463 11.116208193591048
Sb 15.274488837238188 14.994200924600197 14.821021358478326
Sb 11.540718754415279 17.459294991441304 13.965286738581003
Sb 15.757763626338312 10.206701534501319 13.818363851594828
Sb 14.425367766335532 11.34715224400324 16.139384939047286
Sb 11.594224361901233 16.346701898103795 16.644892615086455
Sb 13.096885536602738 9.466653825741709 14.454168013785798
Sb 14.949873169553126 19.25510523888889 15.787634282583822
Sb 11.691746692493973 19.020804843003653 17.82538509424158
Sb 14.048611017131236 17.326843931394603 17.753401738984998
