26
Energy = -101.83008445 eV
Sb 13.655505558621309 14.06130715902355 16.695875209180983
Sb 12.828892591906623 15.56476044317823 14.394593363544017
Sb 8.99857187740764 13.837847774352236 16.364358119309536
Sb 17.726968944074443 12.870601253177375 12.914117735889235
Sb 11.282336555850414 13.030392209370776 17.979613289462478
Sb 10.26748687029631 14.388456374109717 13.8450592819941
Sb 17.901149241022193 11.68425856273208 10.257085479009492
Sb 15.064277680770443 11.73856726787062 13.101975904997062
Sb 8.34462135978863 11.264543303116051 15.113455402827883
Sb 17.526701721629582 14.521136909587705 10.609244312476347
Sb 11.018340481634542 11.614701847753546 14.071090219361816
Sb 12.884751515199016 11.346277494248593 16.276710393681974
Sb 7.575566317562859 12.402234860392731 12.602111784056218
Sb 9.210474146640712 8.375984119998753 11.930053008811397
Sb 11.437064071923208 10.11479672187779 11.495219692841195
Sb 14.74616946983009 15.036534507552199 10.088510000326252
Sb 15.18231627732135 10.645879319476972 10.422852565474402
Sb 13.299583532929024 13.733126903527463 12.17167658847716
Sb 6.922733172244491 9.965321924430803 11.192578723159082
Sb 10.531942918755746 7.722224169292338 9.457009950946285
Sb 10.126059295488352 12.475149447146997 10.450823529475203
Sb 14.528554689596325 12.679973084986383 8.484769308653659
Sb 7.986071248262402 11.341037323559885 8.911769938153082
Sb 9.079515039778784 9.121658422973123 7.430875965207488
Sb 11.699258859438448 12.489080174792552 7.840732531006834
Sb 11.901535086059194 9.700596945505012 7.624286225709464
