27
Energy = -105.37567201 eV
Sb 11.07362860481848 7.274171393244958 11.51033449356019
Sb 10.671574493296811 7.862322567226649 8.677973370361924
Sb 12.077153037261908 9.864499304140947 12.407524035164457
Sb 13.657810770479925 8.511034874147617 14.421981875663564
Sb 15.670781086663197 8.403114466236927 12.391862466590414
Sb 10.683528474049494 10.694585862396522 9.439830605037772
Sb 14.327849004459363 10.944544698549905 15.814678078466278
Sb 8.167117163720802 7.400253470395297 11.912193358798175
Sb 7.798542593458532 7.949552593983185 9.053252392725547
Sb 18.053079607288634 9.569975931138258 13.484021639334149
Sb 9.817252791760986 10.151366570394485 14.160595606457193
Sb 16.356064857716373 11.123470038173714 11.741160996423671
Sb 7.831138096810184 10.864408730958635 9.577889656754229
Sb 16.68444272937702 11.881262027365949 14.492131633895768
Sb 7.569928601541345 10.177256433284557 12.392550505550554
Sb 10.385813243268176 12.737875023768368 15.428909227803508
Sb 11.583695465414412 12.158240755069597 7.084402371635312
Sb 13.072650614999057 13.219195546775936 14.61992508914209
Sb 12.916839253905415 13.443610376385774 11.466215529913407
Sb 10.04904140781179 13.28405179700049 11.239881217458551
Sb 13.511461966498421 13.770776637009368 8.483588669684558
Sb 9.158904223874366 14.602740372726112 13.604243830507448
Sb 11.17740879030425 14.994597921397203 7.394878865187235
Sb 13.275069084138577 16.224496797738624 12.038146460824493
Sb 9.435672019600785 15.522118208053401 9.631262494949441
Sb 10.988717291835963 16.82750787049806 13.677499053002286
Sb 11.037099690716271 17.575234697010504 10.885331440179668
