23
Energy = -88.95511883 eV
Sb 18.86088412291619 17.09184006565102 13.635005960325534
Sb 20.831765501065217 16.991776110472003 15.793129132047175
Sb 22.443305857707042 15.385691751021195 13.941732640169104
Sb 16.596339035784826 12.68565219123729 11.638559162813792
Sb 19.81103564720145 14.521183947458589 16.830212481094808
Sb 15.206322247852176 14.69892369444631 13.159806701529906
Sb 20.09722097923958 14.839884117775899 12.31262111497854
Sb 20.770236398194044 13.107316430100726 14.515896950554753
Sb 14.450548424563737 12.833275298745491 15.145415679656505
Sb 13.067458839607168 11.068749371740743 13.34144960546878
Sb 14.057381492477823 11.660805280011088 10.683734480521482
Sb 15.615840744786285 10.069602645536255 12.45112581479608
Sb 14.021841305977759 15.704436317620013 18.183369493437166
Sb 8.770022445983821 17.379701851560302 17.064546104969
Sb 12.303089320961723 14.599106113026487 16.184495611013222
Sb 17.265913867344395 15.320424033337387 15.215781677782797
Sb 15.877711321131999 17.352686563141372 16.78374461344812
Sb 10.115608148788276 17.068558638546435 19.57908305131344
Sb 12.186240543571866 16.596669666856794 14.167391715842932
Sb 14.24979926263112 18.471862596789872 14.724710184423866
Sb 12.633867892714719 18.15439446404125 18.55383079444241
Sb 9.584335010271328 14.870779519303444 17.82477682803253
Sb 11.535429317505296 18.748759696179725 15.968454533194633
