21
Energy = -81.6086171 eV
Sb 14.778376506221829 16.493246472663728 11.46019442169796
Sb 15.741932413346094 10.838651964628175 11.516165483801474
Sb 15.724572662959668 14.92589272335323 13.690977113569874
Sb 17.424848572245494 12.81078699828555 12.810249273880272
Sb 15.635701039895503 8.66883807737884 13.383948025523175
Sb 17.359453540362576 9.239119852284695 15.574238817001019
Sb 12.866744348586664 14.88769036351082 10.049668874015195
Sb 13.140537773858767 17.762806299948622 13.417076535387148
Sb 17.52762814695671 12.137327816001072 15.601340663465548
Sb 13.085014069954665 11.893577003166953 11.691475166307868
Sb 11.558377648627877 17.388882771971574 9.119156649430442
Sb 14.423326776800618 9.324892474591623 15.883172570830144
Sb 11.446967209271941 19.055787354477108 11.469770377575594
Sb 10.547076291180668 14.64496045989893 11.792416117567294
Sb 13.348532982373865 13.304837883269784 14.23559762590751
Sb 14.78894245455592 12.12157674954978 16.47744015716135
Sb 11.349837287055578 9.947198322816602 13.070639782184836
Sb 9.336320217528945 17.207943856507455 10.909388807583603
Sb 11.495067592787999 15.594876058791218 14.308379990904996
Sb 9.313158440349738 11.943936163221428 13.169064913205599
Sb 10.924078094539862 11.56821614265289 15.382452703610218
