28
Energy = -107.66273735 eV
Sb 15.15892153713625 12.698669415912136 12.13521630668529
Sb 13.220108329343564 13.909710358115301 8.498148258480162
Sb 11.093195932515561 13.699762988855396 6.651048689539273
Sb 12.976768200804742 14.78970914514159 12.843562246938532
Sb 7.226884067745585 12.92915172109956 10.834938045432699
Sb 5.8699227584135105 11.366503294758296 8.717075662951208
Sb 9.070688157783367 10.491987499633844 15.154768428039871
Sb 12.885104261470785 7.95901290188508 8.855195771923169
Sb 16.77964272526892 10.203971210867088 11.061314315817016
Sb 4.805901734960099 9.360787460801829 10.437308416463896
Sb 10.837139981702164 7.724743475468991 12.795298553408996
Sb 5.452215050442598 11.331780214685068 12.495480238662116
Sb 8.82057549179941 7.809396037768161 8.327375576227283
Sb 14.691689463947247 8.716226200241236 12.213958217768878
Sb 11.158250911736065 7.878832301839403 6.59701134195168
Sb 9.78766643043611 11.768504820744502 8.446058898356641
Sb 8.669634430090552 12.815226310317362 13.487484083845311
Sb 14.062172944944997 10.862003689093134 8.67474336417042
Sb 12.903600568561423 11.0965180626273 11.358711415598988
Sb 11.89122600215347 10.819676090625416 6.723401093177397
Sb 7.8731174554313474 10.19231144960839 6.969016439300852
Sb 11.866136810125246 10.088812604823755 14.312861396373822
Sb 10.62492014901842 9.075958863287495 10.246778085316315
Sb 11.416807067583873 13.670738014816367 10.765335449261329
Sb 7.459078902789364 9.48390488964987 11.580371105336225
Sb 16.19083151879718 10.564281921250737 13.821151266398914
Sb 8.169548897658434 7.986673232128125 13.910988736668967
Sb 11.399030696935405 13.06592654375237 14.446179796106362
