27
Energy = -105.52393924 eV
Sb 7.055166512791496 10.80440499303038 10.726083139877577
Sb 6.492184926132827 9.188553226250614 8.389855991166309
Sb 7.672744735781586 12.902267621297241 8.885679767771915
Sb 9.923071829913326 7.5908298535204395 10.821558329834401
Sb 8.487018315610856 7.129255205400574 8.388967733218262
Sb 9.881911149661706 10.426448406054485 11.03707154418701
Sb 8.856531131689938 9.458791479707163 6.774204227987879
Sb 10.835872398277429 14.292195774771148 14.920904042754472
Sb 8.51250626320441 14.252706665503519 13.216683040627405
Sb 9.56602941278184 16.775902931231517 14.032704460508219
Sb 8.757429668118563 15.042309810973206 10.478107416226567
Sb 12.275925091882032 8.461356849776497 13.853231095660723
Sb 10.406819070435393 11.272180459310919 8.364382416332447
Sb 11.694077727592484 17.127680364494225 12.005164458165183
Sb 12.429061925720813 7.3129610236668245 9.46192500182449
Sb 12.430980593161163 12.718444757353934 11.884441932690985
Sb 11.594731649683277 14.892942628245398 10.134906639433243
Sb 12.586198975315675 11.047798703552203 15.0615006488701
Sb 13.157049896833113 15.867476959118195 14.120732463217827
Sb 12.93610011376541 9.799622411475735 8.09584848461194
Sb 14.049365591328966 7.450742665038642 11.84659417184257
Sb 14.430429139587758 8.83500833286666 15.692114794296169
Sb 14.836079281342105 14.137112946311024 12.533800965200417
Sb 14.233024199334848 11.669232068305279 9.848487218423696
Sb 15.128597243974676 12.407215757252 14.825844044318558
Sb 15.77133052572235 9.579394452853304 11.152975419733487
Sb 16.478502278120345 10.035903300402925 13.924970198982525
