25
Energy = -96.73927857 eV
Sb 13.224112341784362 7.652918726721509 12.532332337882213
Sb 14.296240963233716 10.596595995686622 15.511225115336376
Sb 10.857842637467126 10.412076873140428 13.678190876883322
Sb 6.911766697866351 12.373077272684561 9.951393949920393
Sb 11.088310522736307 7.788148131674092 8.794930777361902
Sb 10.108808104545103 10.427945820184908 9.517273923336466
Sb 12.344520057154027 8.488206861546297 15.162589112726229
Sb 12.547056022019241 12.778271084648445 8.495888422671117
Sb 7.64746657699472 9.56349291043511 10.565051806228176
Sb 8.803548108491947 13.30475038733633 13.149171148621143
Sb 15.096324608015713 11.471416033098212 12.842161541418216
Sb 13.050423943388873 10.230698029664877 11.188287287111661
Sb 10.088291950264527 13.976056321418008 7.3944484107651025
Sb 14.520635807967823 12.690509328603342 6.434771711836569
Sb 9.956253112100272 12.296632895866086 15.653415581231465
Sb 11.247242577019177 13.195128015816463 11.546783582161213
Sb 8.423194582072098 14.852508324847832 9.603291285997809
Sb 13.870695774252289 8.64809846479758 8.848348773351217
Sb 8.359966643744572 11.625868810566248 7.503078281336743
Sb 13.512881908674991 13.898711455262136 13.239131805062918
Sb 9.903387876977868 15.701575847151178 11.950594819253437
Sb 12.815423310575317 10.449623388459123 6.791508357892655
Sb 12.723694452972126 13.060921132568167 15.89992993636715
Sb 10.642097346281266 6.7997517634223525 11.54303673257513
Sb 8.77429188003322 8.531493931033134 13.017642229304576
