23
Energy = -88.54502555 eV
Sb 9.810339904203966 14.69031931232995 15.638382729242677
Sb 10.539186878773002 12.004796615525045 14.877359910759974
Sb 11.450211176508292 14.230262651019801 13.31520942966659
Sb 11.61504607073336 15.107499823310283 17.80795226922283
Sb 12.741498999549124 11.393462735026379 16.617866570544763
Sb 14.089386083355137 14.832245873463311 14.289087816344509
Sb 14.773680270977033 12.514966638217784 12.727721876501692
Sb 14.081153802613477 13.887568949715813 16.994698743294915
Sb 14.310550793555386 10.292156835781835 14.502114529555922
Sb 18.807564176881183 10.736751378924549 14.569803630832718
Sb 16.60192913756541 9.821105301065927 16.156743858660402
Sb 12.866887868790458 11.547322220355088 8.294986212725771
Sb 17.69040417161172 12.546345860436897 12.620828054028905
Sb 17.53914815252975 14.653622502319687 16.553170849470675
Sb 15.307221821491417 12.859105273319066 7.606376490016268
Sb 18.30404133733803 11.964791517425134 17.102297879630978
Sb 13.009770693603336 14.396863921702709 8.322995086779953
Sb 17.58955988512531 15.080386182373973 13.89733324783283
Sb 13.06779803471957 12.990734822917958 5.83583909774423
Sb 12.560483533130558 17.971983818192452 17.465910949128325
Sb 12.452162246724942 18.38385753994228 14.632470265653248
Sb 12.602180821941396 20.80336537621075 16.15632659449598
Sb 10.252364867525966 19.189627518436296 16.28265685775324
