20
Energy = -77.47395033 eV
Sb 17.573997246198008 13.517825816829848 9.90952089676854
Sb 16.783988098753657 15.164071377379505 12.164119018420635
Sb 18.696206717627664 14.060382977994346 13.962763638984722
Sb 19.041528564099963 11.265188258284464 10.944239037149972
Sb 18.55638882387338 11.190722085306401 13.767062814727367
Sb 17.452171998237315 14.856209499373296 16.47096571602457
Sb 16.51617697659962 10.835943481368842 9.687240856674096
Sb 15.822426394330453 16.865686437998132 15.257206231886563
Sb 14.214832482977766 15.35050988285803 13.450028961280125
Sb 15.75611874763219 10.922755404779052 14.098963252165298
Sb 14.126113531605522 14.577181721670094 18.892648977324562
Sb 15.538688754006056 12.825319548785322 17.010169449584257
Sb 14.56117266820172 11.18668842077462 11.706584065390704
Sb 13.427181760742403 13.168765483134528 15.105030360420423
Sb 13.920827380445765 17.033178182862915 17.43289886486882
Sb 11.99638279342793 14.958467681728658 16.97917398867174
Sb 8.516029988965487 18.251897341333414 15.087096532885438
Sb 8.94875677474247 15.775717965173332 13.735912378362379
Sb 7.598211667134517 15.814309333136931 16.25227466508547
Sb 6.309146312422629 16.859781478635508 13.924843117148052
