28
Energy = -108.76484002 eV
Sb 15.000065686200463 8.322437665725134 13.563813659186952
Sb 17.634258328497044 8.482196227348853 14.53620579761138
Sb 13.330489768458406 8.598145952960646 15.975061358707531
Sb 18.363948793672108 9.234964511118859 11.916876238974684
Sb 15.228920391418129 10.330530735027267 17.242536734113624
Sb 12.033507197648387 9.959901792761507 13.78645918618521
Sb 16.79181647292705 11.365831397555656 14.97424738353204
Sb 14.519061244484186 11.345793318240553 13.114371252053802
Sb 16.068671778682567 10.575633813939977 10.739928671714598
Sb 10.393534256659342 12.148729795695676 14.663804671530242
Sb 13.732774104701653 12.440932901437442 18.449098857352574
Sb 11.354575185342998 13.429875048137003 17.087118143676964
Sb 18.016397998821148 12.220206345277708 11.965901915570864
Sb 10.076706062275514 14.634436810548497 9.273866840429932
Sb 13.899268663977606 14.8124753443843 11.859148464949785
Sb 16.56195209874351 14.682299871339445 13.09646516871122
Sb 9.503564747164523 16.98206394476625 7.668482619771942
Sb 15.207967364456893 14.817387436403298 17.66107949756579
Sb 17.32241581591443 14.183107005745546 15.787342065486014
Sb 11.147398704675691 13.898012935442821 12.46651643046101
Sb 13.343245920638118 14.704210542928951 15.475899593921492
Sb 12.107454005774487 16.62398438408922 8.859490353435783
Sb 8.09503101900179 16.52632527957429 10.138663755511717
Sb 13.832798074005447 17.55098555066978 12.722517588122376
Sb 11.904655408750813 18.65408708426825 10.873235142520846
Sb 9.932167366101755 15.98826352560971 14.020895613058265
Sb 12.221830681396177 17.33551294710312 15.10391701797688
Sb 9.407246355209615 18.090854155023 12.134647512924113
