27
Energy = -104.01752158 eV
Sb 11.054017641102522 9.078826509451055 10.16462291583767
Sb 9.444493126740705 8.510809613030636 12.472722379639103
Sb 18.397861053434163 15.489283196948623 9.111070663889445
Sb 12.259608690650353 7.937305740066522 12.507567637819735
Sb 18.081628907041647 14.0973878214636 11.602648124164423
Sb 18.89492905350927 16.851818514303897 11.586788901038911
Sb 9.822553384667042 11.226160200383626 11.617081773683374
Sb 15.80400076464262 16.270370453391944 8.1612559927608
Sb 13.53836447995076 10.096600353736182 13.936335017800868
Sb 15.270430922914047 14.152416078459249 12.216343090132424
Sb 13.84382700349532 15.339157514188237 10.024423885686225
Sb 14.67764288509239 18.114922359449537 10.037671381926792
Sb 16.52465575468803 18.334050324261188 12.218993795979143
Sb 11.876438334137381 12.325353136604797 13.32392006781089
Sb 15.070751299155805 16.491043844534673 13.887771934757767
Sb 11.020979715024264 16.8711981827739 14.022442482422363
Sb 11.217724255420533 10.590855716953763 15.536876992459126
Sb 8.264426469852495 17.400705517870865 14.59796028303854
Sb 13.852411007042301 13.849060682831393 16.01355063947063
Sb 17.366989363012024 15.975562067641619 15.499704536441573
Sb 9.867348592892375 15.96018954244468 16.471115022242646
Sb 16.132957887495802 12.197052792904206 15.462538339446905
Sb 12.196096073651294 12.259681755061798 17.722527959648662
Sb 16.272328701348687 14.266504067008489 17.50845361040933
Sb 10.315873219334524 18.74634861992314 16.053536666612203
Sb 16.03857924586761 10.025304010207794 17.31512392256014
Sb 13.830008065419626 10.204327615204575 18.800077703093713
