29
Energy = -111.94044902 eV
Sb 19.39575199348517 9.043238726037506 14.144330947889042
Sb 18.097840147182314 7.254682364100997 15.96725405497012
Sb 16.578770101432 8.55029192566051 13.89155562693684
Sb 19.595454794684226 11.601236599939533 15.437239150708084
Sb 16.042594984596374 9.128439669692813 16.65135769661851
Sb 17.053491287984837 12.431598358695979 14.446292792355642
Sb 17.348114445255113 11.645843591206432 17.182174637496516
Sb 21.81272593663685 21.104208966753124 14.151880909804492
Sb 17.305442252877388 15.44674934366936 17.556112824630993
Sb 17.481579168824084 15.410832453698475 14.675689309598102
Sb 20.348147895967628 20.453271265409384 16.566649938767014
Sb 20.909170977550666 23.23147267866255 15.896446519491919
Sb 18.18591471832421 18.327491769796943 13.60895796182825
Sb 17.949469616649427 18.264645905310704 17.93919186865497
Sb 15.701284730151764 18.163691874755347 12.147996009759499
Sb 15.039620357383015 15.501892949890106 13.176082985786072
Sb 20.53324523158824 18.707606308294228 18.815685210264103
Sb 17.649718542686855 20.408456465957087 15.49080195696006
Sb 14.574041355605937 16.21376259201253 18.174009010870105
Sb 19.2763649110751 22.327763609583467 13.747056109063625
Sb 13.477938748972354 17.7863968104811 13.94309132354627
Sb 14.825702040245458 18.456041536223967 16.364260965699458
Sb 15.92164830016982 17.97434552994916 20.04729979926389
Sb 12.785190424894182 20.139088110633917 17.523665424760104
Sb 14.372582763369275 20.39845276531297 19.888667344635483
Sb 11.809196231846954 16.72036769276678 20.537310101806053
Sb 10.883473994528375 18.1376245607177 18.220553447459668
Sb 12.730817889918498 19.1142354112295 21.84994786610023
Sb 10.040203088450104 18.98057625321477 20.8465154494736
