23
Energy = -89.5051811 eV
Sb 12.92559427545939 16.463005888514868 9.092995341177517
Sb 13.444110708731017 14.020348966332735 7.647349512143677
Sb 10.748930458266715 14.9654862375539 7.997025876277007
Sb 13.091918044427803 15.75946768966782 11.898842996227605
Sb 12.378311189468564 8.656275853075428 7.941956547351063
Sb 10.01167386470545 10.052438382983292 7.170574225533845
Sb 14.893675869193707 13.663032249600365 11.238557328605141
Sb 13.208048699814945 11.93805850871467 9.698650971982202
Sb 10.16339437755297 7.208523999120525 6.819637282586629
Sb 10.454176278773842 14.681214924011453 11.949198852445171
Sb 10.412790396916009 12.687940758431145 9.937964198168892
Sb 9.977052366216043 8.32176012737737 9.459609527801932
Sb 10.387680568083484 8.29365554225177 12.99154288633758
Sb 8.716927129108981 10.325469793087313 12.039342697408477
Sb 11.162516131520228 12.755654424064089 13.95542260962647
Sb 12.853054481051982 10.57141142262957 13.08146229276949
Sb 15.390477605301403 11.927112810340123 13.541771350005861
Sb 8.669033675555545 11.556173152758879 14.658173295606375
Sb 15.046042251720825 13.502231564591694 15.913824499760679
Sb 12.286509617272438 14.210478436348922 16.152455410301204
Sb 9.904120723325446 9.155061310120391 15.710541524084743
Sb 12.763520662559754 9.586006068989146 15.775239630938618
Sb 13.269736703432203 11.858487967892271 17.487157221317563
