29
Energy = -113.64608082 eV
Sb 15.906538962676228 15.085436906087322 11.65195240032479
Sb 13.77237238545469 16.688684940813975 12.720606477459247
Sb 15.016051255133057 14.683896808245814 14.35746739884598
Sb 13.903464913408865 13.883464741252284 9.88840126109985
Sb 14.352146477944999 10.522423160737263 15.752138045740013
Sb 15.475039672220262 9.256159997370366 11.08248956172641
Sb 13.399304754766824 12.351337988228632 13.73194062756676
Sb 11.865678078746642 14.66489627784209 11.772259327661883
Sb 13.459965246516497 10.050791786055639 7.66504745960984
Sb 14.744957742113938 8.401262001854784 13.805348355755227
Sb 13.269243588264102 11.087925241012677 10.405854571023163
Sb 10.23883824096522 15.662552941370183 9.589834809789926
Sb 13.631515679885041 7.027714646519126 10.713649437808378
Sb 11.540837709628397 10.0330401772484 16.39158647815853
Sb 12.20033932947819 8.765421249793217 12.60013838017508
Sb 10.894570874206499 12.593056147515354 15.129884307320363
Sb 11.96817465284281 7.7066486365048545 8.427443614802222
Sb 10.362704126761356 12.771419695371907 9.048162160711623
Sb 10.440389103757376 7.90348748500644 14.697842559123101
Sb 11.227989791825795 11.546173946352509 6.510783273541041
Sb 7.550340021237202 14.951131714855798 10.269984053877815
Sb 10.000489743389643 11.707604782521347 12.524515640578391
Sb 10.144109991350566 9.531098686954065 9.800540937083545
Sb 8.317473727934741 9.640899796330425 13.723038885007348
Sb 7.466799410070752 13.103831899972416 12.474230841676105
Sb 8.9696714232189 9.881401273141456 7.203770026936395
Sb 7.631176800928017 12.401774635512862 8.207143816498412
Sb 7.672359609992973 8.654925657739557 11.080997008157802
Sb 6.349103152236989 11.213183244745974 10.54459474889652
