24
Energy = -93.6600618 eV
Sb 20.86474934694275 18.318145471782227 13.055866591420957
Sb 20.056921334354037 16.670919990089924 15.242476691055835
Sb 19.446740148858215 15.886532935454714 12.56681421258359
Sb 18.092707473935338 18.108623859373417 13.75914937521806
Sb 15.15399595668273 15.863933681053688 15.526987255024212
Sb 16.900789943612548 11.79095799080421 14.481134800747588
Sb 13.024591035939423 17.341835741709325 16.769807049735853
Sb 14.822425210985429 19.353591622394873 17.68239107145199
Sb 15.865489348414263 11.671912295141178 17.146589687215418
Sb 16.697637177160974 8.939723567958156 14.518457892598375
Sb 15.442743049187605 14.396672664457437 17.977536619697005
Sb 14.798278656722855 12.408939808055829 12.685350976977835
Sb 15.987205961182148 20.61725886004493 15.423771844233974
Sb 14.945417671692427 8.157952321404906 12.370484713191804
Sb 13.190652086677819 14.457313123282853 13.980636749236638
Sb 13.05923831918997 11.055496795159534 17.189311417894398
Sb 13.72070956391554 21.824215419143858 16.80728725765584
Sb 12.706755413867775 13.67353003072142 18.544688356333836
Sb 13.002151230128145 10.202293615963367 12.942191717272415
Sb 12.172066408444056 18.330207373024408 14.240081339219492
Sb 14.293549079149328 19.893495186169527 13.168014132875436
Sb 13.8945391836235 8.45768915211448 15.046823090316925
Sb 11.586496887983342 13.173732052292856 15.96665188493809
Sb 12.050722471513856 21.159808045183546 14.511212486543377
