21
Energy = -81.78119284 eV
Sb 14.135482613989693 14.164695358614857 14.999278784484925
Sb 12.162653905687291 15.496537290136418 16.66931985211061
Sb 13.840053922506263 11.898395551879457 16.77462488482563
Sb 11.272899471824001 12.998373160963826 17.710463071212203
Sb 9.953729629590178 16.260226446550536 15.020232870222992
Sb 12.702708899352606 11.814739088261994 14.149506384872305
Sb 14.737660305765766 12.829879123417697 10.724965936897743
Sb 9.312213759849582 13.947096512012 13.449753690096738
Sb 7.805100342137406 14.531057400040865 15.826712848706256
Sb 11.58950114245241 13.300267693337524 7.84905506938073
Sb 11.87539313971159 13.024393899384677 10.688346032756135
Sb 9.2901952917152 11.650074409301435 7.563961912200574
Sb 9.436679446874649 12.141555078002614 15.682590421833911
Sb 13.402576125469478 11.480796949043263 6.5914266543503945
Sb 15.529262271622319 11.169797845340126 8.532363171965638
Sb 15.030531608044152 10.800503801894683 12.732678828291467
Sb 10.875257254715553 10.391895234279113 11.312969207434149
Sb 10.083105825548854 9.223549979210684 8.818781620999268
Sb 13.230003748909807 8.796497654349947 11.711599330789246
Sb 14.55157188414249 8.519767039567013 9.195757330702971
Sb 12.433301787137758 8.809782861458322 7.245494472913675
