20
Energy = -76.88090736 eV
Sb 14.416914114412133 15.96989667941511 8.31222374783289
Sb 16.634171532978414 12.250144861394222 8.296325618006103
Sb 17.091568066733483 14.988240895307454 7.806244849703022
Sb 13.32351415809835 14.08663941959294 10.251384620971372
Sb 15.45914280783681 17.678732457562553 10.45271515963129
Sb 17.468785474868348 13.865618606366032 12.116142811383675
Sb 15.440630522718704 12.29345750024646 10.876356221259615
Sb 17.905004583940865 16.07969749742128 10.36285225001828
Sb 13.709469133961452 16.18571991767578 12.209234956373699
Sb 15.906190077401785 15.472805702681844 13.893329669548313
Sb 14.771299015629207 13.440251862267939 15.641782730064172
Sb 12.271295267146874 14.856126921634647 15.366716902112646
Sb 13.505608847118863 17.109933467268263 16.68465838125104
Sb 11.556184630198254 11.497688888422365 17.616924736231113
Sb 15.605598992275432 15.326999455790224 17.67778947871612
Sb 11.458072558662066 15.532850095509394 18.049028748661303
Sb 10.419372686107947 12.194948834003679 20.145500173548612
Sb 13.2436544458745 11.837025906668806 19.89139660238167
Sb 11.159517633431733 9.48686489977552 19.61922152156181
Sb 13.649218013046799 14.841568693437791 19.725383383185925
