20
Energy = -77.79131614 eV
Sb 10.54059376092169 16.960013497616554 10.893767039651749
Sb 16.061655910713387 15.114045380634204 14.421047754683347
Sb 13.631870047167263 14.022306175531734 10.969959001846428
Sb 9.87035203196171 15.361212197264065 8.605561870128929
Sb 12.058070791754014 15.495257231524134 12.849675029625253
Sb 14.094615274913858 14.311169776374374 16.273252890779705
Sb 12.346754616209177 11.677698505330554 9.944573457451245
Sb 16.834044438228148 13.653855614878326 16.74284748590101
Sb 15.195484192895496 12.705485709611098 13.0079671814399
Sb 7.90248797212754 15.877058764833013 10.702257866529797
Sb 13.740534172093032 11.375693828546439 15.097709261676037
Sb 17.13562023630457 9.200322127770958 14.15556281466536
Sb 9.943078541343741 13.891467527775152 13.9245680966674
Sb 9.678136676325245 12.5894522685874 9.37749812921124
Sb 11.507969196103897 9.865926488982845 11.981543189254536
Sb 16.28950649083307 10.34476846872349 11.66809544871552
Sb 16.373836754847527 10.802468431688318 16.31742194362665
Sb 8.212103868549859 13.190566768396332 11.77773053420403
Sb 10.743881396264293 11.160174861495012 14.317708546351515
Sb 14.285819695964433 9.007197187233036 13.114671504193426
