25
Energy = -96.77824882 eV
Sb 7.02724972077622 8.467557382073307 9.950352471216036
Sb 15.921552095799298 16.43032159130497 12.039362874481276
Sb 12.669155252580786 13.31911442395757 13.012270707208513
Sb 7.803006879954542 7.769253121441222 7.214968936244681
Sb 8.621635985844208 12.492829867170123 13.722488453608774
Sb 8.926638694350716 15.12241246812662 14.666838784286579
Sb 10.372058173530206 12.019717526705229 10.984527714056346
Sb 12.549061191135381 11.770125964497758 8.989717806353347
Sb 9.993537953793162 9.429713635971183 12.124343005154577
Sb 16.67485459021398 15.115036417534762 14.47597055531526
Sb 11.950878950800075 9.262223621286456 14.233604035279756
Sb 11.425029270157609 7.760095068482777 10.231290564135943
Sb 10.931928327330533 11.90719973901481 15.221133256676161
Sb 14.471110586958767 9.755050911719257 13.091432378687275
Sb 16.15701674831879 12.617143729894961 11.384811061025713
Sb 9.000156813867957 6.445079458563232 9.444276987303788
Sb 14.670138785996398 17.06935914555918 14.540923047810463
Sb 14.159358824599904 14.526621116147679 10.72069192302163
Sb 8.05418777512165 11.148831084279584 9.372457070759303
Sb 11.061768922767504 14.672431512409574 16.515204643030906
Sb 11.92375007677816 15.882325207380408 14.087810597376176
Sb 9.288479635442892 10.23793055596598 6.967986044514553
Sb 11.817676832550182 9.241800108961156 7.833755822106883
Sb 14.664622148177376 10.324893419851971 10.285096340433373
Sb 15.168641850602572 12.51642900914909 14.192181007361718
