22
Energy = -85.96251171 eV
Sb 16.970336888207626 13.459478193007373 14.746370244201854
Sb 17.20914499873471 14.61384718608078 12.208156153311075
Sb 15.837626499580308 16.040503227632797 14.285419693564267
Sb 14.25803106617141 11.884399042875135 14.341409351763325
Sb 13.730162830857358 13.035621533343733 16.94033146023833
Sb 14.24583980945626 14.24854508010947 12.664566922677361
Sb 11.116590342874527 12.086009060810214 17.653896568215497
Sb 12.83664130433951 15.710765119196568 16.513073267718926
Sb 11.387864618613856 11.869522825478606 13.13013111132421
Sb 10.659473728045874 14.914189713018823 18.2804988696186
Sb 9.650045847751548 12.724521173829988 15.271805024045321
Sb 11.275494373296256 14.442272524471985 12.062975621415596
Sb 12.833031516060283 9.70937658979023 10.678889110361329
Sb 10.161215313631505 15.534452480077569 15.478025216286559
Sb 13.584385689448704 11.75677383774846 8.838835576018676
Sb 12.77221305444006 7.447940057259151 8.81408674153018
Sb 11.574981652947274 13.819431344017888 9.257919809773302
Sb 9.98438301485005 9.844879807539682 10.620298699313574
Sb 9.896227549136324 7.595339923325851 8.714152623242077
Sb 11.582693419566008 11.366859338873983 6.811622134973783
Sb 9.481918114086405 11.894824080915702 8.69204930942789
Sb 11.461010932477283 8.509760425169153 6.504799055551402
