27
Energy = -104.75650345 eV
Sb 17.58677693193599 12.32631815968907 11.263947773835238
Sb 15.54419580749601 11.585923417557668 9.370601521912791
Sb 16.802359306156777 14.181234943616069 9.206275149536237
Sb 16.853800378625014 12.642728225035961 15.63958160962766
Sb 17.245573988868813 15.914266018360001 12.838916281979923
Sb 15.72831440172398 13.530314520793409 13.163549197476346
Sb 14.977541566681964 9.61475449541623 12.807072699604124
Sb 14.46971045036921 12.242183641510033 17.235155309476834
Sb 13.357558200276554 11.782915242941002 11.2929099092419
Sb 15.601024309897962 16.472172886858573 10.53786576827895
Sb 12.938608183224611 8.943599330830414 10.853970311573564
Sb 16.837333565578497 15.202605527643652 17.070701377098793
Sb 13.9685701616632 15.037948405495268 17.762038865361703
Sb 12.78914299583203 16.043169644581763 11.23940227126096
Sb 16.1316709977324 17.250689032119443 15.131000843818313
Sb 11.880714675434902 13.850425576232702 9.64324197113038
Sb 12.174778517717701 10.783256890175013 16.25283798842391
Sb 13.346554380955933 8.484648864742265 14.910450051540836
Sb 13.313296114440675 16.6754956378962 15.448001071792364
Sb 11.10190980882154 11.536623418061334 13.668644799056187
Sb 11.078847911386712 8.652986026652751 13.103838123808078
Sb 12.543511858879752 14.535302290317137 13.690550617395024
Sb 9.336236791029739 14.600983533661887 10.778288302120389
Sb 9.938377892362732 15.88228479476773 13.28663368149303
Sb 8.321798863225721 11.54077812020411 14.372770312287647
Sb 7.675974191875651 14.315698563047938 14.281839354777741
Sb 7.43085042627194 12.6655258218372 11.90431565107046
