29
Energy = -113.31666723 eV
Sb 15.631395004137186 8.035773314264109 13.649306499218591
Sb 17.646064582610336 10.136657761979112 13.568194610109018
Sb 17.312397907328222 9.966060907415196 10.671634343380534
Sb 14.181787687093655 8.900874984196546 16.04886371251001
Sb 14.474256673216214 9.464482133269401 11.337804998012324
Sb 17.098825941195344 12.744759207003845 9.774314855530994
Sb 15.263199782461497 11.6704729473332 13.142302208845722
Sb 13.968069830933057 11.757304750358959 15.699894083238645
Sb 11.432563390624315 8.075327896911837 15.479112334451408
Sb 15.342986691926379 14.014003489423427 11.623951284128399
Sb 13.001708355340527 12.25143038311723 10.15004452443898
Sb 14.987205491911098 11.292647670771382 8.278928961604645
Sb 11.47654566000436 9.485131574919434 12.969300680237545
Sb 10.162700863355493 10.431896981209873 16.624555727982504
Sb 10.973551631430828 14.51203736613371 12.217202432527708
Sb 11.367470593404065 11.9375679181853 14.480012657838635
Sb 11.5579400361244 10.93547117237836 7.768137090911195
Sb 13.247291511845741 12.890541679111022 6.496108713584716
Sb 9.068922694010592 15.354292953949694 14.212807055953174
Sb 9.698525856571164 16.460686609854058 10.546716477871993
Sb 9.40293733379221 12.212263552829752 11.229196407467892
Sb 12.891863826655973 14.773587719780021 8.676155613144177
Sb 7.119977317432482 13.215020137081328 14.585539776618026
Sb 7.72704467759249 10.333890288763317 15.0412801836457
Sb 10.105311864724982 15.090828841798224 8.030427154178426
Sb 9.140975011445091 12.388643249613352 8.35055853310508
Sb 7.241155361575564 15.950019325603233 12.006625885475316
Sb 6.722586797142617 13.10252486996834 11.752284870509984
Sb 8.645165513395368 9.506228202058168 12.479166212759571
