22
Energy = -85.9823124 eV
Sb 10.146546663215942 13.968707032975297 6.184456647906483
Sb 12.83425369010336 12.955453571584819 6.200398823626711
Sb 10.583546555087851 11.171377967378803 5.907048323276408
Sb 13.061390836090263 15.344551302206558 9.344546731797845
Sb 10.660370694077022 16.423789365266728 10.474901379096165
Sb 13.135308088303333 16.635850261018685 11.93203368395652
Sb 9.990903055847367 12.250276332629374 8.54549360426902
Sb 12.824286491962718 12.45561199495469 9.105342878760853
Sb 13.440455223415787 12.410487973639688 12.81011439472942
Sb 12.944586411999635 14.841639021043092 14.19349131679967
Sb 9.285626005639942 14.289505855339344 11.826029848648124
Sb 13.780045492050137 8.66743556601887 11.667223993135773
Sb 10.769489866493439 11.781551099342508 11.909126623810844
Sb 10.082015938384172 14.777735872041076 14.551942164498824
Sb 10.958569449075691 8.288019976332789 11.96391189103126
Sb 12.781364804110716 6.0451055289610345 12.426704793133188
Sb 13.706355916951464 11.19967745975036 15.41526114940385
Sb 9.337475450276056 11.982794813962643 14.425937586855206
Sb 14.762911918889229 8.734953820836802 14.357235456814866
Sb 10.447943930630476 8.051476264131573 14.791862050656809
Sb 11.033123636208002 10.494075874997359 16.180225090703537
Sb 12.931621933822882 6.728115098223388 15.28490361972344
