20
Energy = -79.1273038 eV
Sb 15.801423439879919 8.255498652037742 15.794727360244302
Sb 13.581981922973084 8.212500494211316 17.62670417568339
Sb 15.820374985525623 10.034789281254062 18.043880845686182
Sb 14.977481680336837 9.816819421673468 13.51535697739614
Sb 12.19713343052825 9.48956225159286 13.997090025206147
Sb 11.95307907527813 10.401807144078111 16.670442880654573
Sb 15.463940730306847 12.415379669561363 14.600023436330629
Sb 14.165786262830972 12.207589955221144 17.111493854758223
Sb 13.323547432553015 11.562333917674477 10.511986781474004
Sb 11.385977448725944 11.9001703526294 12.639807162517055
Sb 11.571495817698153 11.736946038491519 8.196250092322398
Sb 9.190084139751873 11.929350199171742 9.710094591915624
Sb 13.192617730558545 13.935454291964637 13.709824150967995
Sb 14.080615704873697 14.329373723567846 10.983490573236216
Sb 7.658917257776037 13.096308509305647 7.541709682464567
Sb 12.043000603540479 14.482414916601707 7.5526499383919266
Sb 9.393695254683426 14.459450819973888 11.052225235746544
Sb 11.746468184827377 15.742066382423506 10.075745361737695
Sb 9.426220876365322 15.137971712869094 6.563805872454558
Sb 7.826907753302967 15.6549619980147 8.903440733129553
