23
Energy = -88.4290142 eV
Sb 19.548497600142497 11.529516514045364 12.400059674523039
Sb 15.819557880864709 17.52527665400137 10.76439086051504
Sb 20.74214880465813 9.370036958978462 13.835392825516687
Sb 19.841800345144947 11.687794676606277 15.234804632414638
Sb 13.049292727916345 16.66719054121321 10.192022803217306
Sb 16.215762078073368 16.75401056336857 13.491947698566147
Sb 16.272616810154247 14.778710533246008 11.472278747077432
Sb 17.947919910337003 9.877388168014544 14.089444285034137
Sb 13.47656961944127 16.314390626230892 17.352044226277368
Sb 11.574470810394347 18.31829063548256 17.93797301982126
Sb 13.212066545773178 13.979283632912702 11.032538338187074
Sb 10.70249474764969 15.649820161650878 17.837193995938502
Sb 13.43830707523581 16.51581042345133 14.461188793448763
Sb 10.574693602700215 17.4525675300329 11.409134831349675
Sb 13.0857943348993 13.756257982664204 13.93237230811358
Sb 10.960302413064968 17.982481886476332 14.25490343972361
Sb 10.181805332870187 14.623912481046435 11.159171625542792
Sb 12.908455783596708 8.965501160603543 12.409585038258271
Sb 9.31548578735186 15.945104053424538 15.27740428065213
Sb 13.21891080765193 9.18631776519729 15.242054402922763
Sb 10.233724368760253 13.56683842983712 13.8280825338128
Sb 12.589617273156886 6.66365048466185 14.065099496842599
Sb 10.631274592204116 8.737719424381485 14.11752807612636
