27
Energy = -104.43886514 eV
Sb 18.757028231013276 6.924812092783318 15.282533590306432
Sb 17.502876025976875 8.80292069378272 13.543119590214323
Sb 17.4121144202654 9.207292920140754 16.368009955887132
Sb 17.474469065007384 14.672276692102056 14.336176799560855
Sb 17.831325737944077 16.61293474306988 12.237091778826091
Sb 17.380015357015633 17.526619521598345 14.924421316889218
Sb 15.906606574037655 7.095471043979492 15.177220667255682
Sb 14.413007138146193 12.074770148012792 16.41296091493459
Sb 14.615274046834163 14.14518350311407 14.340419481845004
Sb 14.707093702362915 15.633744046049028 16.73900577036525
Sb 15.481242644673413 17.391507915333978 10.7902361266647
Sb 14.56198177604181 18.182113129273457 15.346937269161314
Sb 14.32166395555428 15.269213896855494 9.16261057539006
Sb 13.516245849501676 18.314774169497092 12.644919293634503
Sb 12.60686431434494 9.954258065393159 15.565886074102728
Sb 14.002611730864498 12.459312754163921 9.814416248991467
Sb 11.173210087464087 13.061633893877808 9.541997800560962
Sb 12.487816569057086 13.887086587101816 17.636414051824886
Sb 11.896432616656929 15.942190435187145 12.509910020609638
Sb 11.569626062119566 15.967977913077602 9.617598377313286
Sb 10.018559611073831 11.164126407282174 15.264538073977075
Sb 11.40409754295409 10.121994252948976 12.945039374479885
Sb 11.137048854393395 13.87783217571696 15.096999975783767
Sb 12.373641881801172 12.746225963045635 12.164298725356675
Sb 10.582245976663526 17.875454465696624 15.804801816510187
Sb 9.420743887152005 17.33367105539603 13.294407619389549
Sb 8.860280058046726 15.635505645902372 15.567109124086192
