29
Energy = -112.4213938 eV
Sb 13.744843601508979 13.657335535129585 12.53355472487964
Sb 14.335756281355392 13.980383765449528 9.747318416361377
Sb 11.247069614681255 14.192537164931366 6.576101484984973
Sb 10.87005849994529 13.647520483377951 12.734766323888955
Sb 5.334285848422953 10.799141166072495 12.489800401342888
Sb 6.265872952078857 11.87436954650187 9.935066350288716
Sb 8.722583856605974 11.275592492475308 15.708048825221248
Sb 14.37837596511537 7.366053472049821 10.015832212013223
Sb 15.419032781193568 10.066267732185699 10.231652371862479
Sb 6.077453615882664 9.214730716036097 8.798979751728323
Sb 10.63781210688256 9.21540957302823 14.947668171774994
Sb 7.397783745621637 8.948232757336756 11.615252154598748
Sb 8.434697952772963 8.309312988037666 7.407106255076044
Sb 12.808430718991968 7.2112083741400745 12.463824744036701
Sb 12.196205327565066 7.230784293424826 8.121805331670943
Sb 9.642413579938342 14.617619096637787 8.917526577189257
Sb 7.347093209160441 12.613627095963674 13.554495293050948
Sb 14.155044350219697 11.557446916757442 8.127811889111651
Sb 11.796481788126203 9.934950425271296 12.37984379369211
Sb 12.597761889290904 9.517372947029687 6.444794638774099
Sb 9.90772001471758 10.546398371891755 6.280409516823096
Sb 11.279643514624219 12.453297689909062 15.180066977732432
Sb 10.193098031813578 8.516308270508441 9.694024069122822
Sb 11.030849646768889 12.058350300215292 8.535190588721665
Sb 8.877640548358817 11.526426746730616 11.353851050388686
Sb 14.478677272074332 10.883713597165414 12.858302233513946
Sb 8.735932654750103 7.340314729512879 13.63784164743894
Sb 12.315363293955517 15.755660076832582 8.752944579580802
Sb 10.280593847173007 6.198210425194893 11.4646968553325
