29
Energy = -112.36579391 eV
Sb 16.308376614536705 9.406359484953224 6.899754956156718
Sb 16.495700953426198 12.165808452280286 7.658358911462606
Sb 13.936186779486457 10.871120628093573 7.625114864519429
Sb 17.338492919250765 12.22322543554885 10.401483963564884
Sb 14.826472947617976 8.682045936466832 9.245065591358243
Sb 16.16229768112145 9.883127867092133 11.502061003420371
Sb 14.649595583891715 12.316232755538678 11.387305243857991
Sb 17.345613292921673 10.870910469600805 14.994500765825721
Sb 15.43812482091265 13.224202581033111 14.067029120691078
Sb 17.263890494546338 11.669456127216721 17.740611718725344
Sb 16.610461624184666 19.585519898820415 18.831817122670977
Sb 13.321934867523371 11.624232766275357 15.19812413894862
Sb 18.019034489722465 18.16670151892384 16.74457697046211
Sb 14.844062344951299 17.463838409394718 17.981361160213932
Sb 15.208724283426168 9.964106917538626 16.657886656619326
Sb 14.385198798228313 22.09052763663623 15.224444000858664
Sb 14.01832680540717 15.87301899559423 13.944164059854925
Sb 13.829605638347774 19.408050642922092 14.23524362208936
Sb 16.150059577481894 17.76177178531967 14.497387530171304
Sb 15.55359585268595 22.052710996701833 17.825199156010765
Sb 17.340276895629138 16.19600862481762 18.755270894250067
Sb 15.983402008982178 14.200936429264752 17.184368426668335
Sb 12.71086857974124 21.801623088223476 17.61072265748098
Sb 11.677213192051846 15.355930478870008 15.601419089495236
Sb 11.831646853057144 19.375628130686422 16.32642154011785
Sb 13.03663765091707 16.374557135589203 19.950120502286286
Sb 11.991729146506314 13.082437865496798 17.296244443926025
Sb 11.126107150174763 17.02823089259235 17.866872286842288
Sb 14.007957888943908 13.735963492651802 19.250412913814888
