29
Energy = -113.50206919 eV
Sb 16.240941641210974 10.862789647843693 15.963424422531213
Sb 13.925342516074773 10.784346627127276 17.59298816838977
Sb 15.513043738058316 12.203669254852676 13.5156232641434
Sb 14.351575426549292 7.690738062302672 13.69690502514801
Sb 12.509456840347964 8.94134692888692 15.62217884527882
Sb 12.767854588424994 13.352929478683066 17.163232894119943
Sb 11.873340539465367 7.308261266265835 12.20996238148876
Sb 16.866079829497153 13.657870790339208 15.628964264781946
Sb 9.921006381389411 8.498501304636521 13.996435913949261
Sb 14.15687763012314 14.342123334049719 14.852880920025893
Sb 10.272547181779462 12.101829312104062 16.353478268571337
Sb 13.591527743960032 9.577273112714085 11.659246248576538
Sb 8.374670118591686 13.92672859979784 15.069938094183758
Sb 8.843385065485375 12.88548611572058 12.379696683470947
Sb 11.397272683755965 9.595370200154711 8.24517906023688
Sb 14.084354842894042 8.726952098792916 8.923057619950177
Sb 11.345362146537278 10.988568082823573 13.923759160172889
Sb 11.170877886764767 11.663009356748793 10.245711533837028
Sb 9.506777968686961 16.284302963629386 13.7495684431633
Sb 7.616821535615089 15.430241658489033 11.691324572462038
Sb 11.381519530544256 14.351499663010255 12.64138452931644
Sb 15.071790056719447 11.3412566427696 8.087272817031577
Sb 12.810167720123859 11.186380035882022 6.286081965956447
Sb 9.471260510953302 13.000764265423832 8.33213746701279
Sb 13.789195769765834 12.901674463013478 10.123268266659156
Sb 9.110267298209374 15.735453396281995 9.199496016309508
Sb 11.626459246299639 16.229240670927908 10.423951053562263
Sb 11.526975531613857 13.798944280585442 6.515501217507323
Sb 13.33338796584106 15.082588321424707 8.357490817445429
