20
Energy = -77.73431653 eV
Sb 16.015030189081426 14.977994526955047 9.226894887164823
Sb 14.830993768346408 12.839902634263227 7.590930258687334
Sb 13.301024972576224 15.792516878085628 9.722959856286092
Sb 15.420313339341867 10.898862704932503 9.709527555338765
Sb 16.579213551583386 13.072355637333304 11.334730680016085
Sb 12.19356886513419 13.323724346217144 8.766203657196831
Sb 15.755844048679236 16.458395290263358 12.695004058067655
Sb 12.763756281375569 11.351385348045094 10.832012173010284
Sb 13.025569308674072 15.506745360626727 12.577824905947269
Sb 14.136211974255076 12.88579087413605 12.845372669863835
Sb 15.967544167622513 17.853292815226045 15.225733091222123
Sb 11.876002081610025 13.229488629273012 16.00909341175452
Sb 13.790711056530414 11.639182531276 17.40749840425008
Sb 10.98022389832796 11.346411102818212 18.01182840279077
Sb 16.597346806642108 15.07027347685811 15.093344905802493
Sb 14.02273222588405 15.876490041830834 16.063910843260945
Sb 10.620495108717776 14.178240102313442 18.417390930708738
Sb 14.807917959998203 13.155162350236148 19.62017400564677
Sb 12.663904911344677 14.878323680091464 20.299952458699305
Sb 14.915246479843008 15.929112664786798 18.813263839853096
