26
Energy = -100.92196543 eV
Sb 17.198918328417825 14.054323835484725 12.433539886567024
Sb 16.480188282202676 12.167872543466931 15.59739108555888
Sb 14.761849878297337 13.789109540766349 13.978460692716803
Sb 14.663049721237515 12.025102558869253 17.800163154258616
Sb 12.4683185323031 14.675382514906982 19.345366678893946
Sb 17.215976386665904 11.276734033756574 11.6339821529436
Sb 16.360156091879695 15.097329503474256 9.866494531393606
Sb 15.20783178502372 17.302090062937896 11.349614157230855
Sb 16.123121931019252 9.856901569059563 13.933777547358257
Sb 15.194603282350101 14.798475684370644 18.383877213667297
Sb 13.740549767165676 13.89374067611321 9.574683720365652
Sb 11.853591485834212 12.619255237187478 17.35049322692805
Sb 15.07644776112205 11.314006430232395 9.739749688784421
Sb 12.885417669533673 15.567611098415172 11.85794600335428
Sb 11.076762429172957 16.684835059336574 17.838164395009855
Sb 13.439918229688853 9.170644084958765 10.733284847688708
Sb 15.206168274140559 16.043164817854347 15.754795651594096
Sb 13.295192793317561 9.473657182103784 13.541750845012439
Sb 10.85730218296997 14.697871075327003 15.619833857324952
Sb 13.798625902544396 18.29440618011472 9.047906088515408
Sb 10.834858439046757 10.178609945771177 10.05912113260808
Sb 11.701185264520538 16.623145492012817 9.453661173892566
Sb 12.531420042251295 16.984439826986634 15.396410339234881
Sb 10.840704292995254 12.833111900526406 11.20689115239621
Sb 9.40691303967809 10.677288329336031 12.50654594942239
Sb 11.740571313089458 11.892827740244224 13.780786895097789
