24
Energy = -94.14099452 eV
Sb 12.469809519686917 13.415878970312987 8.256004477958445
Sb 14.499424009385036 16.047209805807082 10.523885101218696
Sb 14.906827319512384 13.32518708880944 9.763968137032887
Sb 11.272706144857201 10.874371698789522 8.90002367531556
Sb 10.33663247260403 13.267238762350265 10.173299651891737
Sb 16.962285999447825 16.24512048011082 11.998104833599609
Sb 12.405137415062564 15.963211629300359 12.562801503163348
Sb 13.371696610719372 9.758249691957637 10.513759576158904
Sb 14.12729494648607 11.980208217515242 12.148898392718548
Sb 15.791061962754938 17.78959368944534 14.076752889748782
Sb 11.612851520687613 13.204510998896362 12.719491909236982
Sb 10.423688373075358 10.032630956602775 13.942011872461745
Sb 9.1382469821929 8.865043202486465 11.643052279844369
Sb 7.444455785992581 11.519113738566512 16.06089225114617
Sb 8.652272536690985 7.75143771846944 14.22016720789205
Sb 11.819088264019232 8.050890985601711 12.270660081649094
Sb 13.794414913848026 16.026795347320054 15.078222000707271
Sb 6.322106687930857 9.559560278622149 14.367964787134957
Sb 17.263643363678252 13.702789411299882 13.244421645646794
Sb 7.771255269806712 11.88013991360859 13.392590992833973
Sb 17.790884855978273 17.22021796502628 16.055911698770032
Sb 15.222099574152534 13.567494440304174 15.257628993292602
Sb 19.119385015282795 14.826740374003586 15.181438854214107
Sb 17.0533220546149 14.696956233261243 17.21863878483124
