24
Energy = -91.87626796 eV
Sb 7.832231567778313 14.082816631117252 11.910083640044641
Sb 11.665816483033314 11.723518765601675 11.867422049733396
Sb 15.095762474103251 9.79933659403205 9.87143855568732
Sb 12.992545597905464 9.538638531580755 13.679329346386224
Sb 8.50600395125234 13.744657047896336 14.662010665254414
Sb 6.686872412453659 7.92394752045798 13.301390238291242
Sb 12.937793806175524 13.357798751841354 7.199588014759462
Sb 7.018928210864286 11.661440862072924 13.30580263728328
Sb 9.005402238662988 9.590795711473618 12.99462684494611
Sb 11.30340083341968 10.972974938823686 7.304557255484284
Sb 6.261303937304357 8.486739391578498 10.693071939082772
Sb 12.432335831666572 15.495813263796222 11.462807868808252
Sb 8.847263683399094 11.629378444673485 8.637827425083998
Sb 14.812047468820603 7.155872461036242 11.036235689494774
Sb 10.678504296280261 10.043525481408688 15.352037868507253
Sb 14.130872259796321 13.207389977936772 11.819983677206785
Sb 10.19490395785838 13.872837428675368 10.300675074134173
Sb 14.12274999093542 7.605987892920223 8.28017047385722
Sb 12.235885935993226 9.380178893196819 9.607304750698214
Sb 13.40654740601967 15.74242668338971 8.78104529709322
Sb 11.211908854643047 12.751295349724884 14.567205418330117
Sb 8.935836798991504 9.168915558837687 9.896649618413743
Sb 12.129255293776739 7.43828212757111 12.119194302789845
Sb 15.097259838095358 13.361401517592709 9.055753090279065
