29
Energy = -112.51496472 eV
Sb 18.769171110116904 18.191863555595834 19.450923550967595
Sb 18.01201323883291 18.976094951456364 16.760573326394148
Sb 15.061481398176982 18.860749792755588 16.6484876053809
Sb 18.595644095484573 16.219856569640765 17.342529950589856
Sb 16.28533463684055 16.789117962481015 18.944217504456326
Sb 15.509461417525852 19.74032385265697 13.841896120211697
Sb 15.291296218444758 14.148165002781678 19.805544122035602
Sb 15.032086949506496 16.06214411782533 15.771995779355573
Sb 12.774877606086651 19.06020240225597 13.332834852168306
Sb 16.821535084045152 17.42623634489323 12.756949128512884
Sb 13.32420190790035 15.030418281732677 17.91430930627737
Sb 12.885290810960479 16.148878086266784 13.810046067750239
Sb 16.955810565223032 12.454776657944542 18.19087855234396
Sb 12.986667647541868 18.0347039171894 10.639608392467798
Sb 17.071641626274175 19.639900346998594 10.950281253959457
Sb 17.15372438654257 13.521333763994921 15.541798372191561
Sb 12.675725139137102 12.49657570433615 16.683138882486872
Sb 14.83003963018239 10.673178864289152 17.40910038850923
Sb 14.686896569190692 15.911471651316168 11.572206808108952
Sb 14.806067840806339 19.89293898557113 9.521079937757898
Sb 13.811138466066977 12.917690509804427 14.057687567199974
Sb 15.91349911735521 11.01546361150943 14.719158782777054
Sb 11.60988927099074 11.380781627673192 12.896861138384436
Sb 12.624889129220392 8.77531718146224 13.46594413011845
Sb 13.199404518367697 9.999548228289846 10.963628725231857
Sb 10.041811497097518 7.565043741839249 13.032003341281694
Sb 8.691258736720997 9.306901874905828 11.19289465915368
Sb 10.894131490877236 9.377638418958396 9.358779024932623
Sb 9.880572375490638 6.852213207394011 10.262896014026413
