27
Energy = -103.09779921 eV
Sb 17.845559384928876 16.367617771027483 10.568601556131767
Sb 11.327117261742432 13.199252916280393 15.642722474129043
Sb 10.639064473527508 10.524190056503137 11.334041881268078
Sb 9.186738967202352 6.9717040878560885 14.714637866149314
Sb 11.193675312170896 14.372241565332276 9.773420854655434
Sb 13.319892107680733 8.776397159567646 15.175405162147069
Sb 10.684786244536712 6.786957378872157 12.244101545660202
Sb 15.29197809960227 12.68836540721541 13.810860617884382
Sb 13.291717155772147 12.468442945509276 9.380845766078252
Sb 8.592480825882012 12.244511566946215 15.171794425934861
Sb 7.416950436845001 11.481997005548363 10.423091984518063
Sb 12.698139057851161 14.262340468987501 7.270888064469123
Sb 12.860969643510822 8.580220373687887 12.29669532609239
Sb 7.294513732430723 8.632018528965432 13.21360191146641
Sb 8.590589287079789 8.575514722965359 10.620999130163955
Sb 16.948325548622115 17.600832832936117 8.33903155027656
Sb 9.034251155109393 12.851471429018263 12.337465015095564
Sb 12.521785891593975 12.668804276552768 13.040963935015942
Sb 14.945660904585722 16.31534955580278 11.701420220412748
Sb 15.036858341759228 10.918940577265202 16.11079666257354
Sb 12.27374622417966 10.810158719486683 16.948693830894594
Sb 9.78498470898813 11.999188862268927 8.798735932007473
Sb 14.90615818692301 15.493444359600645 14.50848816881792
Sb 15.861098350254926 13.917475231471332 10.40220250166913
Sb 15.410110668647851 15.26837318646932 7.909464663846183
Sb 9.725797099308856 9.76425930985831 14.274508284073029
Sb 12.38569193432015 15.548504321536841 13.079198534765917
