24
Energy = -92.64448855 eV
Sb 13.10724780863193 14.248842937790082 8.093138136676622
Sb 12.121961575980524 13.097856509421488 10.51024879818457
Sb 14.526841791894855 14.599862982578566 10.6102124878557
Sb 15.215308103503235 12.468543728495531 7.203612250693358
Sb 15.432656196551227 19.768285471062214 16.350931967429297
Sb 12.742367390574813 18.80985622023075 16.10292898329908
Sb 12.831503821412973 10.350880160855906 10.460696466384517
Sb 13.046620251531808 16.618675604034625 14.246947164624329
Sb 16.64391971262429 12.745960751481743 9.802552577151932
Sb 15.725630711128964 15.71344865207902 14.621088545323712
Sb 16.798466495751924 17.286884626382754 16.786114144177397
Sb 15.29464628813424 10.354926746950447 9.101073921738083
Sb 11.025954223919712 15.173807033799475 15.675851521552394
Sb 14.883573998740967 19.626416889918136 19.231272716945355
Sb 13.896136544497871 10.511879531583173 13.217544731101226
Sb 12.708185496871065 17.734806739816502 18.759440230874308
Sb 16.372601170704264 11.925369179081747 12.9219048710246
Sb 16.42296519098051 9.215120770527845 13.15774274758966
Sb 16.046785636432986 13.396012014092996 16.283579264829942
Sb 11.284588108617369 12.364410148279902 16.060728025202497
Sb 11.647638861853748 14.21394018116953 18.291678105556187
Sb 15.343802422318454 16.72384118421324 19.192144331539
Sb 13.99880261067906 11.425413792836142 16.474825665452723
Sb 14.416338142602521 13.361235452230897 18.66064462135298
