25
Energy = -97.33096903 eV
Sb 8.840724161000406 7.423564547959653 10.788534414455281
Sb 18.7020872378322 17.07226690398284 13.196981213214666
Sb 13.737431742335898 14.817855433319755 13.677360848780898
Sb 11.253429906966565 6.137442124931419 11.723580117815798
Sb 8.203453616859004 13.8351003298829 12.276834449939368
Sb 8.342312322306187 16.52899077001391 11.258225071415561
Sb 13.82355324384046 12.001586453617922 13.126014450259241
Sb 15.886478935887054 11.564698976987628 11.122414138065993
Sb 10.969182542446145 10.034242980962926 13.58132554638138
Sb 16.55641091065258 17.48805409270368 15.123293464075982
Sb 10.662856950770584 14.847463858402389 11.17920495886603
Sb 14.713257440369302 15.830809371116446 11.205033001462636
Sb 9.335397281789367 12.195807693929032 14.96768664589455
Sb 8.471930163154155 14.329846976911021 9.42901931544563
Sb 12.140632931930835 9.51631531619634 9.95105712144538
Sb 16.145321316503168 18.062634268660062 12.33791647026631
Sb 8.902804718787687 6.246389626101535 13.40136743743163
Sb 13.08114717450779 8.284093178865795 12.294794371303686
Sb 16.114062327959044 14.634435351105305 15.2168832175334
Sb 7.55309756721676 10.369604688082696 13.881017720741422
Sb 9.209171283296465 8.456976428680326 15.221370151613193
Sb 18.235814184886554 14.221629720867684 13.304129153857152
Sb 16.9928308117197 14.185491932140842 10.755270343538918
Sb 13.199810194362827 12.208259137615093 10.322677079165395
Sb 9.440527917040457 10.220166721384352 11.171736181451687
