28
Energy = -107.90958747 eV
Sb 10.069964062769518 13.262469261917794 16.11131729766435
Sb 15.574231944004325 11.05217658599014 13.70864434138119
Sb 10.543737766766702 14.853750528213517 11.50412379939028
Sb 12.567199203983474 12.798284303934311 11.29432430236454
Sb 16.541473049183843 13.427053829406512 12.381925967519654
Sb 13.49373653380916 12.785299956762023 14.637582258670234
Sb 13.650425196128353 18.9643016787647 12.734543275072449
Sb 9.913927189054785 9.614194373859037 10.466274937559234
Sb 10.905671445889784 9.258761738411314 14.617993221876644
Sb 18.308064392281246 13.353657895974173 8.664352504827487
Sb 14.660852176631245 14.419106281826988 16.700751195962972
Sb 11.88775448113212 17.151850329192015 14.045674669586013
Sb 17.32248294572023 13.508755286769023 17.01744163836806
Sb 18.983785920163285 12.270030974103195 11.244963256443127
Sb 8.887266396015422 13.446821020123949 9.683903434468142
Sb 7.510474516738423 12.000477305389992 15.981325144431734
Sb 15.904550739033256 16.41158095526661 14.994925283274174
Sb 7.9808050030358535 11.316484124226461 11.79529447804428
Sb 17.444635411409052 10.732696040170095 9.352859535461054
Sb 17.82097163166619 11.434478752151135 15.413496808531791
Sb 12.165447676339456 10.018937150563502 12.161295239379145
Sb 11.9647385382296 11.168385449989213 16.49014979308091
Sb 11.105288294994441 11.791771587904128 8.921741801721872
Sb 8.849616486492463 13.452566372893815 13.531921213519134
Sb 13.944248495923327 18.518600034885207 15.562401653704853
Sb 8.091475138244023 9.75894062444177 14.409709228774348
Sb 14.222392879955041 16.0926238938122 12.658918375642244
Sb 15.579354957661351 12.931341152754085 9.69499620150733
