29
Energy = -112.23781991 eV
Sb 15.527938422101684 10.372946457659275 14.553735054793348
Sb 9.549689110080276 11.305015687927574 12.662777384526926
Sb 16.716089843101607 18.482072926799823 12.8300413421643
Sb 9.363514948792776 15.300465492024994 14.282408863880445
Sb 18.282831224564408 14.722333261505137 10.636614792727041
Sb 11.622390865525768 14.305645474009674 18.141241853118707
Sb 19.739229867697638 12.485309891944269 14.590770707532771
Sb 12.078858821541894 17.57287718059907 12.364947396249292
Sb 10.495800215620612 16.527807893954968 16.629269126390426
Sb 16.693581509223968 13.527468390359603 18.049052552205502
Sb 18.35047398379041 12.163134480911207 12.042327634310737
Sb 19.9255570448644 15.320331565338178 14.97104121988202
Sb 11.121048633923335 11.799124837514057 16.807566123301733
Sb 16.551189887548794 17.781528436520546 16.37622358822536
Sb 11.2516466474021 13.033765639673764 11.10460115110905
Sb 14.526237524207557 17.553272718404205 18.376232577559524
Sb 8.914981796702422 12.616528223508066 15.174141098970576
Sb 17.726755592930996 15.833948919273114 13.189622841256611
Sb 14.719589688045687 17.302202830181265 11.142411628924235
Sb 12.671429899484682 18.04252556011711 15.358626512252018
Sb 15.376748702405639 14.43511476561999 10.795825230053714
Sb 14.278458114038237 14.980898047959304 17.21786147091833
Sb 17.591294231638013 11.411293101849921 16.295331064015915
Sb 11.966949722014238 14.836687146769105 13.238794441292342
Sb 18.396659263136918 15.761150867691944 17.422801465304264
Sb 12.400700206616182 10.859306028562754 12.662675900693513
Sb 16.045627455675554 13.152838617444793 13.461941082361896
Sb 14.77144037532898 16.220721423452616 14.617185808320448
Sb 13.33908106178058 12.2894781093698 14.99972406460441
