21
Energy = -81.8281659 eV
Sb 14.264349888811633 7.923921331777617 11.061425183577935
Sb 15.010537069161375 9.270436818828715 13.51706488866615
Sb 17.031298361001163 8.057146873422289 11.876806080632676
Sb 11.450650984168176 11.031007701692154 12.489515677195856
Sb 13.03169419692747 12.128726111871382 14.656523022327649
Sb 12.41950890912333 11.79833549620652 9.902156377860027
Sb 14.794481003846759 10.237218837152156 9.40251905611029
Sb 10.504993871924256 13.414329045428165 15.31986299214854
Sb 9.749366440994077 13.380442145260478 12.539121987616006
Sb 16.498375027940888 10.899379265195039 11.651999141227769
Sb 11.146038962035803 16.17424089567401 15.598552773628295
Sb 11.377929812481945 15.501121041213835 11.342938768583087
Sb 13.769651897747769 14.204161123903791 10.4794842929558
Sb 12.996920168099349 15.645142367886123 17.72319024691802
Sb 14.62861881126612 14.271151105345858 13.629678810324526
Sb 12.994787161165071 16.61428358202663 13.476452207521543
Sb 15.381045408360785 14.658881940733643 16.477732674801246
Sb 13.464642602067388 18.463404743039035 17.917607495632264
Sb 14.928310730470955 19.155632867119184 15.544503122405752
Sb 16.836893083921527 17.03544098143697 15.874492642627965
Sb 16.306075734942926 18.8116553571801 18.06761872257576
