20
Energy = -76.2707069 eV
Sb 11.262101668593656 12.845341349229013 6.978859636904331
Sb 12.494411228009763 6.17311027098429 8.00697669374013
Sb 11.751061725126704 12.105137452801806 9.648242617361769
Sb 7.008116921389569 12.405829659710815 10.814608618544955
Sb 10.769475741370373 9.695740481138776 6.7823995708315055
Sb 8.968872644103705 14.265702437807425 7.873228726236466
Sb 6.797165956383518 6.3826580118170115 10.150554560655749
Sb 7.887834419264442 5.9900660265123316 7.46042384583932
Sb 10.5099211809242 7.250652887470033 9.772083093273672
Sb 6.528542962357143 8.45013526998763 8.148028234000892
Sb 7.792590466272243 10.309144098319916 12.777580180283389
Sb 10.36391596380041 6.758742469867231 6.201019265625286
Sb 12.67628362801941 9.058475411809106 8.877044509442108
Sb 7.084688441297459 12.08295221929364 7.932394294390078
Sb 8.8454556490438 10.051131550884607 8.956708350296413
Sb 12.103246938199492 9.249412736232715 12.2420218944565
Sb 9.633158476601084 13.667855354924866 10.753768013515991
Sb 7.982525011263768 7.439408372689414 12.54752260294083
Sb 10.82114486874164 6.757940147091399 12.590697717468522
Sb 10.419372170308051 11.286177315640844 13.021205761366176
