26
Energy = -100.12533693 eV
Sb 13.14926455385282 18.9048674883071 14.95278602060457
Sb 11.262563733293128 18.495812958933488 12.801231422463323
Sb 11.07259199188537 17.975083757420055 16.76901574849337
Sb 17.02001369485475 17.93949727375642 12.891738370786223
Sb 12.539048333460133 16.425743071654786 11.301952210076848
Sb 16.119055071044155 15.829888327223545 11.187262998030128
Sb 15.018665789876458 16.68654848451557 14.901759018587143
Sb 11.67021967179283 15.253639304527079 17.38556314271987
Sb 9.165028005609013 17.64650096807348 14.616059161356542
Sb 14.498710269369186 15.452911316703549 17.559855104163972
Sb 10.654166152822729 14.336405809021693 10.704240281796073
Sb 14.036819963426266 14.732591648912267 13.077259531687696
Sb 18.562629823354925 15.63654612523848 12.647032297077493
Sb 8.45426702065381 14.883684632747832 14.984504821700087
Sb 20.35722516907355 11.649578580002114 12.923644614459732
Sb 17.100470877466744 14.011796735944442 14.769040937155857
Sb 8.419322512562573 13.652555886443713 12.3584931477341
Sb 21.118845364538288 12.442867850917713 15.576780683762461
Sb 14.79584733076989 12.884046934824838 16.432733131207268
Sb 10.74117484872139 13.262405750232011 15.542372127252731
Sb 19.288552596936185 14.448211750441187 16.538816659209605
Sb 17.570783478086387 11.447594729833083 13.580281297106664
Sb 11.005875101394563 12.373446214107506 12.763665546767852
Sb 19.505615681590086 10.094521728589209 15.203605996459764
Sb 16.320531326430896 11.736796043980496 18.56858833314198
Sb 18.832768516311173 12.634972421601839 18.6817827927762
