28
Energy = -106.16815186 eV
Sb 15.062423265114965 11.325406587809784 16.772857724917078
Sb 16.878146885536562 11.079380919686256 14.532578165387502
Sb 5.785079073781418 13.177706396997783 7.342712184865882
Sb 9.495368277199002 13.487353570103542 17.582691044975356
Sb 8.055780167641146 15.730218153772118 16.54099935349451
Sb 11.602714733374395 8.627405406053642 12.526542434362756
Sb 14.293970529094203 13.10977972067929 11.055251358902163
Sb 15.801819627705813 8.31724186875775 10.730137926158683
Sb 11.257728355847922 7.524041676511481 9.927331673659209
Sb 14.378120448728257 10.87354658843547 12.930784158409212
Sb 12.978286683847447 12.381872863003887 14.958970374713928
Sb 9.298556715808921 13.86723585932929 14.754078549774622
Sb 14.684511381913415 9.364702438006615 8.323984575432458
Sb 11.951796797392952 14.502632011150924 12.276299952325664
Sb 7.962030268816344 13.160289850275447 11.00387183428904
Sb 14.911457164997584 14.351891032107543 14.076863310900018
Sb 8.887539707852804 15.28035522745467 9.32178151951705
Sb 10.354511909793583 11.47592155501457 11.567838580644722
Sb 16.845801163024042 10.736052958455527 9.599981400106667
Sb 8.407984806643007 12.655603946639065 8.19512222507957
Sb 11.77198853231767 15.05420210778499 9.425892155156367
Sb 9.128483011818732 7.325952425161577 11.83002293655198
Sb 9.10067653452271 9.462387207635572 9.864931556503079
Sb 10.935655446769026 15.664824967854601 16.29740097491945
Sb 13.095399418257342 16.58233800211259 13.945534667518226
Sb 12.083429596610168 12.180589841607896 9.333397513331027
Sb 16.820313668852464 13.479372221989856 16.12814015860965
Sb 17.319473501662344 8.22383793764719 8.294621997793888
