21
Energy = -81.69062304 eV
Sb 22.881435386985633 13.298480356753458 14.982393788375942
Sb 22.088828782657306 15.912089003337236 14.114441026547068
Sb 21.26884410267358 14.954704628998899 16.692832104521095
Sb 19.903737851668957 15.494764475716222 12.326945070318095
Sb 20.20266906883773 12.506246200677356 15.64274908159437
Sb 18.57795708048916 13.189221843646678 13.397142690316258
Sb 18.2215400908378 17.221987226523428 13.937983927740463
Sb 16.88861547031539 14.908870424438136 15.05661293488316
Sb 15.793396518110656 16.222040736363954 12.764058939920533
Sb 15.34338291333827 17.459321973118705 17.046487269936122
Sb 13.175406823623133 19.344876749643408 17.325842757211728
Sb 13.371919898232902 15.544890474028728 17.89930028140079
Sb 14.518561170464478 18.3083882899438 14.420576714563966
Sb 11.216819349371953 17.212148553041846 17.01513152041992
Sb 13.416642345562341 13.41716675763849 15.992612008319206
Sb 11.822611756982297 17.280125416559446 14.214716807564233
Sb 11.122952501651662 12.51509159712862 17.467815118525156
Sb 12.271229696436004 14.525441975559303 13.617709148952967
Sb 8.99371017906201 14.362534576813417 16.8416826239547
Sb 9.446568627333242 14.194541586422561 14.00053387748636
Sb 9.13131558610975 11.790804034392409 15.532857999246383
