21
Energy = -81.47146755 eV
Sb 16.996316115081 15.559580346359954 19.945354562978732
Sb 18.41883092135564 17.04613531242343 17.860350415280923
Sb 17.059820784484383 13.144886021333113 18.34138441435322
Sb 18.876974512819082 14.492402698601833 16.58389016656729
Sb 15.620118820279565 17.407370470862045 18.26734943379188
Sb 14.46018338577598 13.26137780596495 17.11637063422675
Sb 17.615887089540205 14.359679400076095 14.008624456259824
Sb 14.064623090058708 15.996697383814782 16.3072018040802
Sb 15.53307300628145 16.244676451707843 13.860064677307374
Sb 15.581566747234202 12.255734447035866 14.643056747893004
Sb 13.970119138834571 13.795746407372224 12.792845948950637
Sb 11.522234395072042 13.884884387617861 14.312142767228025
Sb 13.602707741313486 11.213934556815834 11.310741794131376
Sb 11.6154386089855 11.25637955822888 15.396165391188225
Sb 13.454250850939317 9.928278764877783 13.818445824832693
Sb 13.26682719572735 15.582829148628038 9.892949694736869
Sb 12.27725220532566 13.305408139948502 8.420294200203752
Sb 9.736522361552915 13.594202194126831 12.09154962113142
Sb 10.96046191799409 11.667215531705136 10.366173788921566
Sb 10.71905735099411 16.107392266592107 11.137956888417653
Sb 10.856689166995206 15.79710041325248 8.295753391030107
