20
Energy = -79.17044736 eV
Sb 15.64199344911828 17.303226321352 13.40080212842334
Sb 13.349742001148236 16.033649155070336 14.56942502387592
Sb 15.415521685513664 16.875412601081344 10.564050690483002
Sb 17.17341565090769 15.206846049420918 12.164040187316196
Sb 11.765572464571735 15.973641927356383 12.208695646127815
Sb 14.422076742430288 13.401274027867615 14.626686436358034
Sb 11.808265805320005 12.22295962989624 14.836892841313306
Sb 13.508517927881126 14.681951578929848 10.36150967722023
Sb 15.249573338103408 13.032390176206043 11.929696373722615
Sb 10.034135175129366 13.912478333473672 13.229323864298363
Sb 12.24484475391494 11.205821976817997 10.671440301234657
Sb 12.252749912403335 9.916633788155904 13.202890610898255
Sb 9.736097334478734 12.576720312202175 10.7167549596218
Sb 9.521971451752579 9.232315067925871 13.710475493155698
Sb 7.986079818986486 10.512675042163396 11.6667553913238
Sb 11.325406627237449 8.98401404260528 9.031419594182967
Sb 9.681683188286087 6.53546695599145 12.753845084667173
Sb 11.437112467708108 6.4852526509889525 10.49791854737651
Sb 8.453829784499085 9.096098713425418 9.239367956332922
Sb 8.529641940865982 6.349403169326241 10.156240712325157
