27
Energy = -105.71538581 eV
Sb 11.686206619633058 11.783871125716708 6.315175419726483
Sb 13.861555895475886 10.159310521755765 7.269259037973119
Sb 12.377184743363282 7.797572107815572 7.8783401770119355
Sb 12.12661896322559 14.007502710482932 8.065158318433705
Sb 9.940387747419399 12.277851198176135 8.560852692216642
Sb 10.790351385576614 8.429399895319511 10.199568969479763
Sb 13.336527688618922 7.16483772826594 10.511962316610193
Sb 14.03837580702751 11.552380723512012 9.746103354409303
Sb 12.034286835594461 14.915246255393381 11.674895246933174
Sb 12.903299536745893 17.473771146282576 10.627208725280818
Sb 11.406408575682594 11.17554776209392 10.793585130288143
Sb 15.137362332292833 9.304399047754043 11.196252467370782
Sb 14.88481635525039 12.297629480332906 14.366527279989425
Sb 11.304415589581224 8.861827041378532 13.862073637407413
Sb 11.965984602015395 18.817332358846798 13.041781244246629
Sb 14.734597592135653 14.154191255450169 12.169984615518262
Sb 11.0854807749061 16.258271495183575 14.069698826205272
Sb 9.39153695835291 10.968018813566614 13.646995692148677
Sb 14.767786122278457 18.389417938303907 12.630945369457223
Sb 10.185840604636033 12.998981829904702 15.549953277582183
Sb 14.10515486407445 9.57120296649834 13.88578829448704
Sb 12.955702685150465 13.15146999284961 16.328506526322425
Sb 15.49043508100055 16.06844639239942 14.157843540960386
Sb 13.228796639849678 16.02250808708986 15.907412746976059
Sb 8.256737225697654 9.484888136938348 15.962007977325591
Sb 10.905469742050256 8.60847754372744 16.70114340880254
Sb 9.90735654520545 11.114323957801282 17.689653219676813
