22
Energy = -85.92567552 eV
Sb 6.794953909984811 13.182675068097709 15.546019580444284
Sb 6.65817285534641 12.56081370255278 12.71407911861467
Sb 8.250125068174258 10.189552254624438 12.725868084827546
Sb 8.45149175017401 11.236422746995492 16.79407601464659
Sb 9.454894602246398 10.884596566985415 10.203948636929105
Sb 9.659631725166495 13.616729810323575 15.5298888219641
Sb 10.97472865080112 8.459229005567938 10.734164274721996
Sb 8.73890819670453 14.520609905919054 12.619241158665325
Sb 12.886241215670344 8.862701302283046 12.851904058831089
Sb 10.299359390917715 10.903507204775163 14.584819172060731
Sb 10.606217172127469 13.48694662820711 10.866672145089307
Sb 13.769080519984485 8.665529805261224 10.093582833956797
Sb 13.557850263069657 11.497538832075605 9.627956679998203
Sb 12.522136130603217 11.747591033640877 12.37815679317576
Sb 14.508093605291153 13.148085786577536 13.935086888971355
Sb 16.30733078227061 12.235017063405142 9.971889586012514
Sb 14.35590680355926 15.532818835653275 12.417999329094297
Sb 15.6193945729407 14.975414459491532 9.881155401314206
Sb 16.73503274340191 11.839228871144309 12.762437801774357
Sb 16.91858659638461 16.38955835574616 13.483178974260511
Sb 18.54868861063924 14.042069124657093 13.146996156562203
Sb 18.178848142762636 15.81903694423673 10.926551796306258
