28
Energy = -109.54997625 eV
Sb 15.536214989990007 10.200424511285545 9.214646014676132
Sb 16.03983516054025 9.211746118022822 11.85860496650518
Sb 12.384659671962234 12.261974679844249 7.006995832371038
Sb 16.50042123411671 11.992540321209713 11.286021258871338
Sb 12.77264296037999 11.015782286103533 9.610836610575383
Sb 10.941182232292935 9.038797123260151 8.529315162154859
Sb 9.645123153390793 11.441538631540151 7.495256418143913
Sb 13.343841621814901 9.594586566872248 12.856307145138537
Sb 14.331717505138696 15.748186576636094 11.625312785643368
Sb 12.2767997109853 7.119902327799091 11.823434009441653
Sb 13.677624908202725 8.24332072526594 15.39257988521029
Sb 11.341814975974867 14.930217017859675 7.6927014095104695
Sb 13.832964694300044 12.930682535219168 12.04577093069434
Sb 11.541101619382285 6.423945668259966 14.524743217128053
Sb 12.468190766908515 16.74857085489625 9.686464607134113
Sb 9.6720208577583 7.930368639237634 10.917001513210808
Sb 13.933756371495303 13.448362674119524 14.932899574695734
Sb 10.172964222202115 13.32864797925574 9.696912010208326
Sb 11.615407664840427 9.827388046500305 16.674774270950213
Sb 13.03092454160377 16.134432696157504 14.174876790023838
Sb 9.51539521430601 8.385554723687234 15.287244640297976
Sb 10.75922607294946 11.847025780341008 12.658929864441841
Sb 11.285688374123824 12.437897057379182 15.468332370920404
Sb 9.941087160371818 17.149536327770267 11.077508510328302
Sb 8.029298119011136 14.954246702452222 10.637321907210774
Sb 8.732341922824284 9.807765638479877 12.908793912103926
Sb 10.169024908427572 16.217728660423383 13.794898628496052
Sb 8.666998597849895 13.787098363265017 13.279784987056466
