21
Energy = -81.74259763 eV
Sb 15.459637790442828 11.635367977756218 14.92490494376168
Sb 15.18536559799681 9.809505827558842 10.420686053996068
Sb 12.807661599287663 11.493702757969961 16.127574701437258
Sb 15.13636676805512 14.449324711667298 14.393800846515227
Sb 12.439572455756576 9.348460145681647 14.214317007982412
Sb 16.602209174656696 12.309172334595159 10.04828579097904
Sb 13.798560413153025 11.212492149994272 12.535395832958208
Sb 15.409746423912129 14.574899359163144 11.475808357009615
Sb 14.586613984521497 11.515265288328985 8.193032996113297
Sb 12.25808816183707 14.106925883891517 14.86548488924651
Sb 11.394552903369782 13.020847321055198 12.386064521883554
Sb 12.66001798086604 14.985423072827873 10.761334237883503
Sb 12.362507090760982 13.329295900600442 8.432093950677405
Sb 9.747848797962769 9.213291832887016 13.035283061006966
Sb 8.268832943699115 11.631874505898939 13.220272609759359
Sb 10.276605135159206 9.10987915696253 10.237570931223406
Sb 8.402276933955672 13.080417728992293 10.747961451416296
Sb 9.993831912279003 11.632177643883159 8.898780785884037
Sb 6.117173784630033 9.95439414420467 12.142629977521036
Sb 7.4310753172238115 8.77631846534232 9.864980208813671
Sb 6.247584023603127 11.397092983867491 9.659866037059764
