23
Energy = -88.54148544 eV
Sb 21.607270234255083 16.864031419576424 12.832815108556346
Sb 20.0797767651369 15.719902076404312 15.280941746363196
Sb 19.30327760905723 15.173337751624555 12.574626866638798
Sb 19.0363810352825 17.819871797963945 13.642928002567814
Sb 15.267999487347987 14.072381454011419 11.125702754472522
Sb 17.492709882400955 14.833054208039632 16.749620601240075
Sb 14.623095091318207 14.874209783731324 8.389488150420245
Sb 16.764205811583068 13.260275508754162 14.468796041098267
Sb 13.160996311048956 12.76281447507047 9.61683103380456
Sb 15.79974677047244 15.997855333084514 14.752008784428313
Sb 13.535369832855787 16.15685240669539 12.08651514955009
Sb 16.350885801514167 17.300983419609103 20.20683659628916
Sb 12.090512223600815 15.43945830064557 9.652409193723232
Sb 14.733716372193308 11.609397758753788 15.68969811419198
Sb 13.994164861907889 13.418151489248235 17.74219636101971
Sb 15.115087971744954 18.95489094272805 22.192786037418088
Sb 13.702753284192598 18.29160853380305 19.789179223917955
Sb 12.685017197895153 11.988403385013076 13.748835022815587
Sb 13.325835109855461 15.73668260883843 16.22677142844592
Sb 14.183958388234185 16.285069250795317 21.766499667878104
Sb 11.814810182347228 14.714146213661252 13.98686713000586
Sb 11.197031503116374 12.846068748101699 17.925482528862243
Sb 10.404074168734663 12.066202096246698 15.471003781428529
