21
Energy = -80.33109771 eV
Sb 11.896677798217285 14.56083507524779 9.331014485930277
Sb 13.326509622758271 12.251727183802409 8.64558309471367
Sb 17.772733344617997 13.42714930158858 10.495229062854746
Sb 10.040850780107338 11.438100245723838 11.282512807187455
Sb 18.93510997902199 15.547215653858883 11.9191787709441
Sb 12.58387379703734 10.206192707312761 10.580461473058747
Sb 11.45052004902838 13.794443987728926 12.078321463675147
Sb 14.339914779199992 12.303693828930856 11.533542291962537
Sb 16.09877509360919 15.523500030029345 11.457036778826184
Sb 9.378524492968548 15.325814171721309 13.400371987940748
Sb 9.145735963806379 10.636219608946043 13.90172135469902
Sb 11.085243943218417 10.960546986825296 16.044356672379315
Sb 16.89916978732805 11.472823485118756 12.840299799146123
Sb 13.123767785123945 12.073206529696483 14.367441807949952
Sb 17.105746289618594 14.191710128837272 13.858053370092716
Sb 10.881716016598995 15.569542506785 15.886557465350684
Sb 7.836610272664251 13.144348283121937 14.57668036790142
Sb 13.43029590922707 14.891983412152317 14.682760123082678
Sb 9.555682668931471 13.224231896403703 16.962485765918743
Sb 15.602365470051202 11.45160369879102 15.771278194241525
Sb 15.651791941351192 14.146727061863565 16.52672864662985
