27
Energy = -105.44195371 eV
Sb 11.671475755306586 7.901483835854461 9.266345457183107
Sb 12.388860769396462 10.72420677978076 9.207326498662836
Sb 9.663325297442306 9.911846296049934 9.414022489528657
Sb 12.627289222371537 7.548427260518731 12.002869436339598
Sb 17.248271045799672 11.12540638528495 11.377849049830454
Sb 13.57738661955896 10.305705404034935 11.821431180605252
Sb 19.619854304996903 12.59384331672086 12.3494346758116
Sb 11.394941876193617 9.641861978999817 13.54346484715507
Sb 16.38922393964393 13.656787551641832 10.316147325220092
Sb 8.909649342671376 9.705466593594222 12.143349487553321
Sb 18.269356073866064 15.176872516290867 11.873145478735273
Sb 16.233737768912373 11.117994115291983 14.094661671971014
Sb 18.672853614626405 12.389128711799025 15.022963197072373
Sb 13.91346813034521 13.76871263148115 11.7241323304532
Sb 14.838652463522402 13.616863818538299 14.44093726774276
Sb 17.03368186273884 15.432960706251428 14.442902139225719
Sb 7.79190118779753 12.364091059776671 12.190290826888196
Sb 13.789002131709392 16.609357660627346 11.280992537814457
Sb 10.111562538606814 13.98390912160931 12.408513298428135
Sb 11.357064917892624 13.00195727140524 14.795334445278822
Sb 15.575582698081714 17.66931369337854 13.309020975662039
Sb 6.872141172797176 12.215745253814758 14.900544259432245
Sb 12.720189768466582 17.668914849886207 13.718468017245074
Sb 9.138301063127845 12.614473405215142 16.603173216079067
Sb 8.99144984618502 16.167571394476685 13.886947996503972
Sb 11.365944574002116 15.849313298055776 15.535201933356063
Sb 7.427554867012105 14.83050794269119 15.923252813291903
