26
Energy = -101.62530199 eV
Sb 14.799841139252491 12.332942071811672 13.883421658143003
Sb 11.342261708134647 7.64925196285201 15.829189637966165
Sb 14.203354718295572 10.040141726749876 17.462474822518416
Sb 10.44615424557074 9.021571903051239 11.524990926464978
Sb 16.12185930921209 14.701785530764345 16.9803178453136
Sb 17.138935570022735 13.96763041455663 14.389908020883853
Sb 9.405945928777648 9.140417004321982 14.219557906657178
Sb 11.199301119705272 11.236523030217734 15.108419900495846
Sb 12.530043741588825 14.045167995833358 13.465333668464735
Sb 12.46654251222957 13.398695036238689 10.618116760609464
Sb 13.907689683152615 12.822366944468136 16.622307373062284
Sb 14.214388899386208 16.7442324889883 16.312375028764148
Sb 11.296836062202294 9.865300804893776 17.720149011903075
Sb 12.507178097847243 10.21505246642797 8.693442854012956
Sb 16.916199494627957 19.96506256536343 12.001750502856893
Sb 13.760615743078365 16.681681173054773 13.480040257333478
Sb 14.11843176347918 20.249583040622298 12.566141067028422
Sb 16.323223299957448 18.686216093801658 16.270406385936138
Sb 13.43752466653855 9.393258339692009 14.694935364601202
Sb 10.312461774980061 11.538177564549393 10.121700845940499
Sb 16.3854486968186 16.027152359849005 12.58819910117082
Sb 17.873356482644613 18.071249559130695 13.926898200723619
Sb 14.528480265300928 20.721413071550494 15.356955027019813
Sb 13.285665438508172 8.839514658101825 11.170460168503752
Sb 16.0117781738151 22.264455943137648 13.451585534252015
Sb 14.464133208585281 11.378807993681885 10.538573873085259
