26
Energy = -101.38865755 eV
Sb 11.456197593199118 8.142369198433757 16.184522533424435
Sb 11.802578047505206 7.413168143590807 13.426567714834169
Sb 9.063205759063356 7.048923088181507 12.70295990896413
Sb 9.697207931762524 10.331418071074484 15.581718320139595
Sb 12.250885173020894 10.140190327061966 14.235561599023864
Sb 16.132116548873626 9.4250143883759 11.631059958593655
Sb 7.846429945176815 9.505844680500305 13.551173244368517
Sb 8.556219109000919 8.497146042753116 10.190555644037893
Sb 15.511694907488335 11.412136924415202 9.64109912422095
Sb 10.361415313285216 8.65208989102901 7.945645066943898
Sb 17.63004462011171 11.848207720998388 11.591669393248958
Sb 12.901138661308988 11.711928238174625 10.862103225377334
Sb 9.443486123958929 10.854777224847089 11.471710307145885
Sb 8.291708641478904 10.48385462810438 7.109525617526457
Sb 15.90137822729255 11.329228875457815 13.832760470619576
Sb 11.747778058402744 13.878775566899836 14.391928260508164
Sb 12.083848611016498 10.972388190417204 8.150808311024996
Sb 10.292923190429564 14.548483546384459 11.970394414183096
Sb 14.532273754518437 13.893279619674578 13.799806101606165
Sb 12.259647693230365 14.365407089010638 9.939976456816698
Sb 7.802386605603097 12.131776678370038 9.458148117394966
Sb 12.124416712102287 16.728042898060643 14.854239060351402
Sb 9.938013434488285 12.852214880124233 7.677423152347626
Sb 10.660087992815338 17.396138642022848 12.440136947295196
Sb 14.627559002073395 15.24676883265422 11.29659187919445
Sb 13.514606311453315 17.619674582043373 12.491163139468016
