29
Energy = -113.20806111 eV
Sb 8.067885434337118 9.063557498370686 8.446618229632165
Sb 6.587635129568753 10.627778405665435 10.375231216607864
Sb 6.947722420735426 9.20950577817745 12.79627441769596
Sb 8.43514199138467 13.548604086002427 8.20538484330587
Sb 9.56896118263851 11.139716499867575 7.106667641754917
Sb 8.729537252518641 7.038453816154199 12.123568115640271
Sb 8.319667093577536 13.017222636015864 11.019279181253347
Sb 10.26775821748109 8.573378909015961 10.230622479890334
Sb 10.767070110261978 15.244184728059327 7.930680861896558
Sb 11.909748176942575 6.7906800009552075 8.538679608939772
Sb 10.563766223258881 11.371287588941643 11.913691375795036
Sb 8.560814833171019 11.449200778348068 14.014046647582422
Sb 13.311170671844282 9.042127174961857 7.407555923023829
Sb 9.337118860482859 15.556212762991855 12.308174388911063
Sb 12.670807351526786 13.331239922639286 6.933840839612488
Sb 12.005616962346206 11.248563849947663 8.836366989096422
Sb 11.626398716870973 15.981676389267385 10.588336733119432
Sb 14.388241461696477 7.653885728692907 9.68099358283382
Sb 10.095123590774307 9.843672808959965 15.863325369423174
Sb 10.224294846409558 7.238953989194885 14.60912408688174
Sb 13.138967694432909 9.336558725134916 11.76344846466068
Sb 9.992062349450034 14.246447549935812 14.710588589365559
Sb 12.300866430428131 13.091392162672744 13.561976359906016
Sb 15.051410836179631 14.276444488840939 8.307353050514829
Sb 14.744908875131244 12.037619626244629 10.12108289756244
Sb 14.174526820475892 14.654139951409311 11.031976829455648
Sb 12.703938982420693 11.054814278972723 15.606001945540335
Sb 12.805135286041258 6.983757242913413 13.412546094792177
Sb 14.473149828139533 9.118370252172841 14.326010865832018
