24
Energy = -93.86710508 eV
Sb 15.882737969622086 16.397113937675478 10.937353268051433
Sb 12.76892166402021 13.971112947819721 18.47214456761365
Sb 12.788389287315756 13.816879805326378 15.564471316678839
Sb 16.693902483562297 14.503273234362757 8.858743486154076
Sb 10.166504404410434 14.769732815963074 15.0326224465028
Sb 14.47192277014959 14.14177699462351 12.242792520043496
Sb 10.235335950737973 12.8416945201113 19.155675506529235
Sb 8.663266299691315 13.02043260028127 16.764748145015023
Sb 14.3349001935071 15.232658865178164 7.316687117923367
Sb 13.495002425139004 17.058601764077878 9.401211744898095
Sb 12.423338904736875 11.090338565577442 18.53612890047321
Sb 12.373261066660934 10.970478161010945 15.628876045459858
Sb 12.06077133806478 15.387897199944565 11.26480439804154
Sb 9.550193783323754 10.695751291106127 15.355484762195795
Sb 14.317712363647113 8.728832001631705 9.675122272945064
Sb 9.29110579276197 12.650311373091553 13.21817945855788
Sb 12.735480980290292 7.584500220612504 11.81595845130155
Sb 15.208132956443363 12.28024338786164 10.133604528418033
Sb 12.519305108379434 6.548655712498366 9.130516127806438
Sb 11.747762574171933 11.813689079073056 11.96928273830752
Sb 10.947416497054878 13.313583804676597 9.629820037509035
Sb 13.25589983572521 12.644917658979521 8.070763164939704
Sb 11.673130165182283 9.28877934560722 8.627686735624364
Sb 10.463465848673772 9.31660537618159 11.2651829222827
