29
Energy = -112.11271126 eV
Sb 22.338963020015196 20.632063073633763 11.907907503709975
Sb 21.315331879188548 17.96133349050549 11.70324113462326
Sb 20.027627116578707 20.09771760328066 10.288296078694575
Sb 19.792540717186213 17.460177249809355 14.120497702240357
Sb 19.784772219583076 21.71216102150469 12.650398072544467
Sb 17.973216651704757 11.0536515164315 16.524402978556733
Sb 18.18834619571314 10.74556268039565 13.680592565413685
Sb 16.570121958173747 8.984258458884742 15.14435228836996
Sb 18.699036053893835 20.020862644676747 14.715899645567939
Sb 17.25830187293458 17.054483187092753 16.78918814896073
Sb 16.142613881295794 15.194510980134147 18.555190579501083
Sb 17.366819805162347 18.308622101166986 12.839356883422017
Sb 15.859382621134028 12.432976139766925 12.451499629689595
Sb 15.974158998648747 13.213550587836346 16.52846913854964
Sb 16.96365191379164 14.57412579920575 14.194281126102364
Sb 15.435633764665946 16.958059744063124 14.593785313859335
Sb 14.289543636022517 10.615731661115035 14.004212238231442
Sb 13.300790406346794 12.033864596315523 16.30188564017711
Sb 11.801062987078105 10.62064020481552 12.285132704590671
Sb 12.793738532071746 14.340625234044442 14.69128734682973
Sb 13.056867902042697 12.693872916901109 10.913469736201662
Sb 10.908599549096522 13.29773084342217 12.740507324644003
Sb 12.721035003280385 14.522933923257906 18.72987472657994
Sb 11.181359677829194 15.767633526309814 16.673903154664604
Sb 12.285651563837787 16.525720340902442 20.761516586604337
Sb 10.043489735562853 13.564354782153933 18.107391178262738
Sb 9.78687510043506 17.75629646630052 20.076441017664127
Sb 9.893214905515977 15.789239792583473 22.166279290573204
Sb 8.413839563608258 15.245683822914387 19.751869649011716
