29
Energy = -112.52263201 eV
Sb 23.360254900852205 13.990212837215111 14.179394002760194
Sb 21.08504702704422 14.66648995425326 16.038039809810243
Sb 21.108705055770592 18.536254435330076 13.681131667639766
Sb 21.146648645996805 15.631361247008238 13.36889944441315
Sb 21.109054168864034 12.218242190816554 14.590292994837093
Sb 20.832983440184172 18.8927658486246 16.513260251415073
Sb 17.708929763361255 15.280060578721267 13.60204751447986
Sb 18.40444591869243 18.04331726769694 12.73922883764177
Sb 16.73597645447234 19.164512289932762 14.77548249444301
Sb 17.26167540268987 12.013681472653904 15.136804088862235
Sb 18.12634333561273 18.11862394367076 17.03873493962719
Sb 17.884305261900774 21.796132638503092 14.666835729784546
Sb 17.733328980242607 14.621739933729826 16.3722104192867
Sb 13.78717124603222 16.55707241634653 14.859577513837296
Sb 18.816320902778223 12.658113653476617 12.786439273945708
Sb 20.47705981457155 21.6479465608107 15.925643272911618
Sb 17.412819112718722 20.250195524254647 18.856485938302534
Sb 14.90843552478275 15.147960457122599 12.696283912127022
Sb 19.327456667995058 22.35519500477705 18.479584442194344
Sb 14.569119702883988 12.715605325606674 14.207408315900494
Sb 14.458844606505545 14.386716220474671 16.566005048866245
Sb 16.71285332556338 22.509612804602277 17.209801274482547
Sb 11.563103936617486 14.275432518308296 17.186793520371726
Sb 11.997221239522295 15.758702517548672 19.592937672747603
Sb 11.953209758363945 12.923766297397853 19.703349403853853
Sb 9.227428760346553 16.495630315804252 19.806824207167224
Sb 7.782261138257901 14.37122185828203 18.530373480208034
Sb 9.169532073446097 12.309416643383733 19.974967607035623
Sb 7.956170046782063 14.48134575690336 21.401826206734047
