23
Energy = -89.45775294 eV
Sb 17.04487000602114 9.808854032748053 12.148512831436204
Sb 13.827419651750304 8.540521531771994 9.305313260765235
Sb 16.088363765767543 10.407723995523684 14.79379160220324
Sb 17.321561855361683 12.462108931994987 13.191110923855522
Sb 12.36903185088338 10.191240275041876 7.497073165656469
Sb 14.435036560647802 10.784632735918997 11.241375450063668
Sb 12.360172026514363 12.4079968730288 9.472881544696431
Sb 13.345874888350952 9.945536300823719 13.793680232687018
Sb 10.993625371497357 8.500266594776003 9.366571544588052
Sb 14.760229496683893 13.656458270468333 12.380388124423275
Sb 14.327303047808204 14.560736127159716 9.68958872560986
Sb 10.56724419771028 10.478360239734755 11.5573734326887
Sb 12.108329508724905 15.960570476878626 10.914625964448485
Sb 10.560025651118846 14.687293279832385 8.864277773571908
Sb 11.393122733610328 13.420339574443528 12.419515022314433
Sb 12.140405575761818 12.296756402938486 14.990210446260607
Sb 8.983631124375963 9.01192041608208 13.511597067552174
Sb 8.085885583041813 11.242728056511808 10.270030352902573
Sb 8.090612435381681 14.109798645746437 10.330169008397581
Sb 9.648044396976221 10.944067794281862 15.573364444156491
Sb 8.898723410773878 14.75822474899463 13.003949557631072
Sb 6.699690663693666 10.703400246551023 12.739244644364495
Sb 7.598544685328792 12.768212936533693 14.593103367511812
