26
Energy = -101.36311203 eV
Sb 16.57693989456102 13.481796160818385 11.880585344044455
Sb 14.607430828920538 13.91469004302516 8.306073213232597
Sb 11.750164752592488 14.484603099163959 8.089415637490955
Sb 15.188732748976237 15.668841468221258 10.53062159167303
Sb 16.083411140766323 11.7624597534638 9.615392976125907
Sb 10.833725694481583 15.252755708891934 10.694056204156263
Sb 11.769940174976314 12.83136736038451 11.913454584474382
Sb 14.043991611557127 14.408956420425588 12.849485345013411
Sb 10.387122882082732 12.020141361524791 7.4179357311294964
Sb 13.981826326828358 10.35213029808333 10.961894527983217
Sb 8.078877242371595 14.465832020348579 10.45222762240484
Sb 8.052672626285267 11.881518200194995 9.074911879112484
Sb 10.445261668249302 13.526314492493228 14.393469538785668
Sb 7.77393373268271 14.023716039061677 13.335434049023917
Sb 14.575247887885096 9.096302531409888 13.565381501906792
Sb 10.33261072904182 10.884924821007194 15.57838832808585
Sb 12.218449159445138 10.034289374051854 8.428355717011883
Sb 11.699085209748125 9.630501806684451 13.342331344381376
Sb 9.17986976124028 10.594512211700016 11.444064798119607
Sb 14.487065648028715 7.519127422557031 11.15755308155722
Sb 6.720086820669276 11.434329351650453 12.826247597366697
Sb 7.698553255869018 9.782211831725704 14.956140241187699
Sb 10.156919103569262 8.480536031060085 9.382209613092085
Sb 10.64203640036197 6.9848405881998605 13.486390585433861
Sb 11.741578796652588 6.545396126504161 10.822756549565248
Sb 8.113555862750164 8.076995437940495 12.634312358233611
