25
Energy = -96.47512593 eV
Sb 16.611918816389043 8.353606143089769 11.635888954300722
Sb 14.452329913049429 6.595178445863438 12.375644525337101
Sb 15.456900841619554 10.82934823331062 10.330066618969656
Sb 15.680695492126226 8.291008467170748 14.351645630962041
Sb 13.279006413554473 9.068870811241855 9.745807395481165
Sb 14.465916052942351 14.528540047613857 12.87489999045259
Sb 15.397731009856363 11.763681884821116 13.03692893464013
Sb 14.226758858030347 13.593617901836412 8.670642572461
Sb 12.180223638774399 8.442116227088444 12.281900230084764
Sb 12.439294388318428 12.45654264737771 6.9507910357214
Sb 13.40822452988036 10.143419059406279 14.270889845290679
Sb 11.222983869620501 11.007747021783544 9.089198661166794
Sb 12.828121091777987 14.769103312174297 15.229969624302072
Sb 10.793538890719462 11.879741235425346 11.871457754387025
Sb 12.468458885438414 14.145208670024441 10.933558943061387
Sb 11.167903946373784 16.714469027119584 11.451171230330345
Sb 9.716152107366957 11.077650473365823 14.58923727494549
Sb 8.84980338073603 9.395480957440858 8.652988055133005
Sb 11.608906864749077 17.224169394396345 14.25169746723979
Sb 10.078668793837005 13.849626167744479 15.159508049583295
Sb 7.254231034824241 9.225092847669114 11.042059814709157
Sb 9.146837403045595 15.897097176780695 13.276902744761225
Sb 8.375862245709394 13.264895997198304 11.054243708829492
Sb 7.308366916981298 11.407742821612695 13.033144008955219
Sb 6.943891708962453 11.438772123126894 9.202484023576456
