27
Energy = -105.9218489 eV
Sb 8.629435404006669 10.952527956918718 17.130630094297807
Sb 7.459486140152915 12.7590992721273 15.231166847187698
Sb 6.196097226314938 10.860763391102482 13.486057195199715
Sb 11.40588582487938 11.669373819220082 17.069939341255818
Sb 10.540625012259511 9.349375188429859 15.68150299306176
Sb 8.300587096838205 9.493799186041118 12.112214854346272
Sb 7.032713056998266 11.724804998206915 10.858691128783118
Sb 9.91578650045669 13.269075838537072 13.913517198803685
Sb 13.682847701892928 12.500903164224217 14.763135950696737
Sb 15.441640911127102 13.268626324109547 16.91710537732496
Sb 10.727093522540647 10.644911316057156 13.093698295714418
Sb 8.528877839652575 14.08886136585628 11.558294034924728
Sb 12.883364089679764 13.11556718724529 11.321786981353092
Sb 10.513908748493067 11.312251062594564 8.784553174825858
Sb 17.633215645359662 12.226111840511527 15.30416522387735
Sb 13.15315815339813 15.025201277761587 13.523914869906456
Sb 15.884663676749025 11.466307923428486 13.12203910666855
Sb 12.93471579712779 9.919331933078968 9.52818203212762
Sb 17.18168519615689 15.07345826300585 15.532098804863107
Sb 15.193710087845536 11.39630563016642 8.506869314071505
Sb 10.731330375297393 14.067123061901297 9.654861941673863
Sb 14.936787897304244 14.075203167228457 9.5575289480871
Sb 15.893141193067017 15.840340472914493 13.077059161464351
Sb 16.935968801074072 13.644363984509358 11.606053840068727
Sb 12.798792908197948 9.114573929403681 6.664726370539482
Sb 11.252890431593617 11.46834548718889 6.02824434476357
Sb 14.111950441114589 11.573752637809998 5.8723222536926
