27
Energy = -106.08746462 eV
Sb 8.1862239375618 12.449436486176353 16.08383765267804
Sb 7.100423161041636 12.004687292384611 13.457506205591878
Sb 6.722469376215229 9.26372369403085 14.243351880304596
Sb 10.509639746950736 14.149765897089189 16.28421597053993
Sb 10.822923021067616 11.287481354547639 16.088067348794226
Sb 9.334496045047885 8.087999805945637 14.185555750473645
Sb 7.583097371469934 7.775043296046322 11.934798047815347
Sb 9.437518785083034 11.890905705155763 11.831689981885754
Sb 11.623601328562568 14.986745885597994 11.565674135260526
Sb 11.284824476374368 16.081866243610566 14.272021784569462
Sb 11.09055272479488 10.222628381974634 13.418540343981658
Sb 8.205252140078299 9.924592909441122 10.137747993803952
Sb 12.357637942249074 12.025181948208278 9.72486285155601
Sb 10.28077694633504 8.408686204868042 8.823491126846456
Sb 14.029240286122363 15.421036293567754 14.891097829273539
Sb 13.275478469914217 17.25498015989704 10.88401755114582
Sb 13.486724434599042 13.335757746609056 12.990109171941896
Sb 13.867952048672207 10.009800578922727 11.102044409818927
Sb 14.989379593399274 17.54021487841435 13.172809143617512
Sb 15.758220116673726 9.889912276925278 8.858343820969084
Sb 11.53475471870069 10.547546853278844 7.414044954036074
Sb 15.007664267660349 12.768261894092044 8.803644071955048
Sb 15.95477026108613 16.246442578313967 10.800356773934597
Sb 15.912831741995618 13.449955850067218 11.47266119228265
Sb 12.267939658816951 7.634835549738973 10.740465111983422
Sb 14.111692747980536 6.935369740686272 8.693262303784358
Sb 13.936903612896064 9.080129455758074 6.798771552503186
