23
Energy = -89.4896001 eV
Sb 14.560181229568965 14.3778758240896 12.540074836490168
Sb 12.597908465918833 16.183619018055794 11.392680631972114
Sb 14.950019928724164 13.341381718654764 9.867889491426222
Sb 12.394608379639864 14.46432773334583 9.04237363276322
Sb 10.687273934666187 15.171179255729768 13.32719013005061
Sb 12.01962975287703 11.730508868725247 15.833122649150445
Sb 12.170094463091528 12.756087854443543 13.110563379560102
Sb 14.183192447866274 10.710500723787955 10.9127253834563
Sb 15.60164031142023 9.030149009143054 9.094069453060461
Sb 8.727441737726162 13.90968571403942 11.41258787391718
Sb 10.792680319795917 12.340929760130205 10.18207299818794
Sb 13.073795689923362 10.170921907915156 8.31056381119498
Sb 11.085060562738652 9.114035442768404 15.08577957726833
Sb 9.211587229679116 11.189328599854472 15.746942668609748
Sb 11.220430990031577 9.652861712182256 12.201640154671676
Sb 8.94602617152119 11.686348845133175 7.985636038648015
Sb 14.213606556960244 6.556706963870492 9.92944624422034
Sb 7.756957532539459 11.89331301136024 13.282494071107283
Sb 11.866433745074085 7.481222389587929 8.523947670040537
Sb 7.425180236775767 9.725335131364169 9.457289022217607
Sb 11.729493300134322 6.916301005296923 11.308937690421436
Sb 8.339224332871373 9.338713020822562 12.194151525199997
Sb 6.657021303587962 12.468155112831466 9.467309689497876
