30
Energy = -116.35023709 eV
Sb 20.45697384673352 15.078651951345542 17.194846197271094
Sb 13.31141688410447 16.516041540392468 16.290776756629267
Sb 15.11789417903549 16.09931907052804 18.34710439354387
Sb 21.508663761373317 12.44059521988337 17.738590647637867
Sb 17.64350791045584 12.546893551167098 18.82209885328498
Sb 18.485666604821077 17.76262459437385 14.351736603758388
Sb 17.54051916292974 14.718388416227775 17.002828451840216
Sb 19.206225638289226 10.763327360771234 17.226287969065023
Sb 21.411038541089578 13.53695805829976 15.020106968295151
Sb 18.935751795587535 15.273732165560672 13.019820120617542
Sb 17.453534071231328 17.36238283007638 11.714368953552963
Sb 14.265746217104123 19.012363195848785 15.205019433704194
Sb 13.40566643167071 13.815428452216079 18.87615786615454
Sb 11.801789091427334 19.414271778399293 13.727813388055448
Sb 15.00463190058012 11.422649565179341 18.63076153889486
Sb 15.728313560922489 16.803371790076614 14.022203584963291
Sb 16.948855539718156 13.572901716882013 14.427968019801932
Sb 19.176694340207142 11.748467256005284 14.511480356551985
Sb 13.709595285051813 12.561291210993321 16.29896964713447
Sb 10.47983513038209 16.808194391568204 13.978445070918562
Sb 12.725603802365091 15.820240265721056 12.426131897950473
Sb 12.157317263709373 18.345364157749636 11.04575734349474
Sb 11.667612761125694 10.666897014232717 17.05406850278307
Sb 10.916485805641374 13.24531464073886 13.880830026544222
Sb 9.336260945560298 17.87706007306597 11.53273658782428
Sb 9.747172024574258 10.999023981378006 15.199490960395083
Sb 11.723951430821282 14.411919115559837 10.1074456548961
Sb 10.730487233764391 11.942543180660653 11.348925428375091
Sb 9.01125091592446 15.307059892495111 10.228121280003164
Sb 8.44676223757281 13.411291858683628 12.351538374040665
