31
Energy = -120.29712636 eV
Sb 15.606834106094981 13.886220257772635 15.537675965864501
Sb 15.362365164228192 21.360176580441472 14.06191629158023
Sb 11.558599043880431 14.833246958238782 11.027750314308465
Sb 18.73768649189182 12.586545808314385 12.210112151252858
Sb 9.796081846710097 10.499275647855193 14.056755954299
Sb 16.270656474596166 11.228939709111616 12.859430585384178
Sb 14.642703740104409 10.288854013612546 10.771858172256177
Sb 13.34271967190884 8.741113777323452 12.806812115984737
Sb 11.987897743347856 21.700747260297838 12.741460057694923
Sb 11.36709066303694 11.09728626612237 16.301737192623985
Sb 8.867384199575422 14.734106718949045 11.997178199786342
Sb 13.466123158111666 19.254960942523844 13.257630549552799
Sb 11.662174123469404 10.878264190114 11.782627879522837
Sb 19.804009954424572 10.8663478068759 14.278532598014323
Sb 13.008046664801595 13.185141610372185 12.947502618865492
Sb 8.876631195678675 13.219757528190096 14.463413048266881
Sb 17.567083966520507 8.99413021858811 14.174889201553079
Sb 17.676040621414238 14.799045022814854 13.7199257144188
Sb 16.620928588938575 20.25135473306271 16.445768201796206
Sb 12.194089930919477 19.64250596841022 15.821847746204227
Sb 12.993267161695261 -0.061300926236904044 15.351066649294413
Sb 13.80848360567873 10.669165947020847 14.932775718893573
Sb 19.495098559870197 12.238407451566387 16.797367891857252
Sb 15.977278916153358 9.460542094578608 16.52516346126899
Sb 10.847199734913783 16.473957393608238 13.222325417300329
Sb 19.523301387608456 14.987182126619643 15.887232082459384
Sb 14.408900632095328 18.761013020160757 17.48573664115919
Sb 11.476306259664282 14.161965525345531 15.201037667580085
Sb 16.728975702916813 12.063731944218004 17.46690389150224
Sb 16.00343566640798 17.685923542477788 15.33622995634148
Sb 17.046252779857582 15.780200618402592 17.252983819627516
