37
Energy = -143.28346824 eV
Sb 13.088748968493094 7.030708760493503 13.33384058351872
Sb 10.826562583158994 9.105963372369137 5.433504776193664
Sb 9.186783980426483 12.663049035946242 9.96843029842228
Sb 8.232645792102252 13.481204853910459 14.14550880427134
Sb 15.893076145467445 14.250799406039919 11.830732769359853
Sb 9.411110129366387 6.983874844363819 6.839770248027881
Sb 9.812017921407813 16.256814624174194 11.434381750675701
Sb 14.666615250077072 10.224561659436137 9.662107978551184
Sb 11.384446972048199 7.8392971309784665 15.58552188624242
Sb 12.905756692567586 6.882976129931821 6.16917623001983
Sb 11.112028687530293 13.109578000406717 7.497609115617681
Sb 13.23262090315778 16.632849931788467 9.557777800382297
Sb 12.525556358275354 10.620172319187688 7.439136582074286
Sb 10.507002752073374 13.590139074793553 12.3761378984178
Sb 9.961896233359388 9.41500756486261 13.488826730543263
Sb 6.834950931443984 10.890894559886078 11.148201260297258
Sb 11.581153852306725 11.430726845431115 15.175705453754542
Sb 13.715014528758887 12.780408766832728 10.631055017734992
Sb 12.617921310265555 9.278782133535536 11.51411084729989
Sb 10.210817366828861 9.997152719413696 9.35677820659402
Sb 13.948178864734043 16.307726055490217 12.35703458943092
Sb 7.385963909015467 10.713926821717292 13.959739452571107
Sb 8.594236640860538 10.508742448329937 6.942552142825185
Sb 6.139719716601176 14.388586499287642 12.394545370666425
Sb 13.731835124888315 14.170941166658915 8.155583500323184
Sb 8.68943767419153 6.566769803923057 13.518781840787742
Sb 13.875654516260166 11.029839609401913 13.453192084415615
Sb 7.354010174979903 15.569935309942418 10.05224983081379
Sb 6.8898884043096125 8.40483807269217 7.7987991033768385
Sb 7.9312221005541 8.370898269508121 10.502408428089264
Sb 11.240762590970423 4.6370071784439535 6.270970276171191
Sb 11.568369632811663 6.249134140520853 8.624453960859785
Sb 10.973027976996754 5.265612246999142 12.407272969257125
Sb 7.244806497569767 17.056418398960698 12.518753113403363
Sb 13.66684377379058 9.738095752303007 16.05250076559516
Sb 15.9944176049548 16.789055745354226 10.422256211028868
Sb 10.311767085982568 5.014383758097717 15.227465374000836
