38
Energy = -146.96222643 eV
Sb 14.596004448194147 14.670291391034404 18.102378729354374
Sb 11.927314330940604 13.617323696078737 17.58229159533448
Sb 11.259105349965 14.052940684765932 14.758535863414739
Sb 14.786423904837074 10.219786030393907 18.010648659195315
Sb 9.649064902075228 11.083571172155768 14.27575759974612
Sb 12.155817472731446 16.767493190154486 14.311095457524972
Sb 16.457010451617602 12.51864424996017 17.61387375415123
Sb 16.128714704221633 15.641926513153974 15.816645531027534
Sb 7.629746435292049 13.124050882677615 14.581083885212175
Sb 14.897555559921189 17.090254971159432 13.613483283509524
Sb 13.462611489391083 12.263124094345423 14.41614519526768
Sb 7.775567185708779 9.417921818821615 12.805698006128592
Sb 12.325857477387936 10.884523551323031 16.681806024432827
Sb 10.455876377762097 17.74108239240823 12.19632138897603
Sb 15.95773339668048 8.698295032235249 15.874192279737855
Sb 16.232725573174594 12.977327333916923 14.736868812453363
Sb 10.132165821103234 12.447583814205233 11.363309932377014
Sb 11.832756665434296 8.630523299340993 13.259282308778667
Sb 5.975184312964499 11.680776365681538 12.707869669581173
Sb 15.958936063417617 9.419369524295034 13.056354388295043
Sb 14.298941818423677 7.22394274644606 14.041807523212768
Sb 13.077502648168313 14.24108885448024 11.311649437700504
Sb 7.683228378504066 13.855042912239087 11.74733589213838
Sb 12.337372761523206 7.474165059744111 10.621361752161425
Sb 15.820481525791825 15.177104070112811 11.691298586364228
Sb 13.474864590137932 10.626445748467376 12.020428311638499
Sb 8.503687761754517 10.392537664811332 10.194929229157543
Sb 15.82190685943545 10.890528101589593 8.894333268729378
Sb 12.491856968203413 18.813399127487255 10.493622153824896
Sb 15.018412414632868 8.20389277173104 9.70923982341826
Sb 13.574819968061759 12.867650772936807 8.725134178526968
Sb 14.032018982937762 16.435341392127075 9.731909329521335
Sb 10.329766255763909 17.301693010217402 9.342164004641345
Sb 9.750081256677104 13.217097419300721 8.465288493512093
Sb 14.337055464241894 9.277342396006901 7.140553559928558
Sb 10.514382614484155 8.778394027183161 8.8200392571727
Sb 11.714388151074923 11.033720138974846 7.485088163171093
Sb 11.573993043922233 15.194737164595757 7.7511080572406055
