34
Energy = -132.00241543 eV
Sb 19.594764926694502 13.765101484005681 10.611109273958881
Sb 19.126865629961475 16.327369471867843 9.42017949460879
Sb 17.919491871409726 13.909366824278653 8.316670957481142
Sb 18.774335531732238 18.677360168202604 13.722673577299586
Sb 19.037702957128207 14.165916410692935 14.79077600065888
Sb 17.85951877899695 12.666468701161953 12.60190425404511
Sb 18.25184383022908 12.207428952685907 16.747110619172236
Sb 16.484959457150673 17.356761382845626 10.002787052850799
Sb 17.48099511007567 18.268762665332616 16.241161256186487
Sb 16.662488614985985 16.911914399815892 12.840790813484398
Sb 15.3478197705067 14.745085783618707 9.432717927162681
Sb 16.032219859562034 19.450302534548747 14.051102855350363
Sb 17.52792268463632 14.316013263016039 18.46869349414418
Sb 16.738465242991538 15.431723120549066 15.940633983837898
Sb 15.236648246741918 13.838834168136142 12.180733448195918
Sb 13.789382818924535 11.48204603763999 11.204762457262738
Sb 12.491824513673206 9.936120766197348 13.192196437852544
Sb 11.76327904824857 13.428288192139398 10.540410178257359
Sb 14.86591870354699 12.6725100755666 18.284572614539066
Sb 12.698039020975866 13.599993164351059 14.937408180372412
Sb 15.40193293446535 12.204362703395814 15.459460884005097
Sb 14.897950968834937 9.942713061323198 19.03239146931093
Sb 11.766735153618809 15.298110623943476 12.734797558203601
Sb 12.191141924473001 15.35219680438579 17.226565082069147
Sb 10.676008181516877 11.574219558159573 14.606239920629168
Sb 9.65502463673665 13.311906513367559 12.49491534171732
Sb 13.903333794699021 9.785806737122545 16.141196860171565
Sb 11.17452632842347 17.61348468290519 15.810442067655726
Sb 9.845650046748256 13.892491717917904 17.897620286897734
Sb 12.344986354053084 10.954023440532875 18.18645167612685
Sb 8.721297025807651 18.303928981979258 17.102747720072344
Sb 7.842200430720939 15.856406831937786 18.40480051441707
Sb 8.734263731329568 16.877257819276608 14.560757814515531
Sb 7.913740837527003 14.413362248687031 15.86395625170027
