37
Energy = -143.81721623 eV
Sb 8.01442481607393 13.860624844823267 8.467688665930506
Sb 6.368127817068477 13.069996518743247 13.574555908654487
Sb 6.873199678875091 12.177667002889514 10.490560439659935
Sb 8.490696767865586 16.72007006848067 8.972180156509772
Sb 8.373488695985216 15.014388471252452 14.24464922468625
Sb 11.301789435109157 12.249026259335865 6.171037336187213
Sb 7.587142149075977 10.480801725512274 13.836010714685859
Sb 9.247186849645805 13.641643900248459 16.6011276916445
Sb 12.642620362168623 9.869909343655703 7.045826321185375
Sb 10.745985813134281 17.068706649034926 10.715995000404794
Sb 11.173756527713834 16.14140206543831 8.039396736842724
Sb 9.323446652267647 11.249081033455797 11.651546938865508
Sb 10.530284143317319 14.394736424264083 11.80555230863284
Sb 9.77721618269681 8.769881060148828 10.204042475783199
Sb 9.349038939420218 10.820440418496256 16.07137143645521
Sb 10.806250245503893 13.35566398873016 8.883070262187314
Sb 12.425889949446526 9.911467083111617 9.978572633221534
Sb 14.111349516942333 12.305707364459652 6.4840815058905745
Sb 13.168118777758894 13.475738636832418 12.347678032838127
Sb 11.802376489219837 11.09086646054236 14.51410672726019
Sb 14.120136916890848 12.695330739108234 9.392104063512981
Sb 14.571848769447497 15.327276890426344 10.566750162264753
Sb 11.149344746622793 6.9469447598255964 12.030271497765263
Sb 12.015623956063367 8.180853695201119 14.495248528724655
Sb 15.16634512498881 10.843535362006286 13.770022779457841
Sb 13.304342864793211 7.165445442424165 10.10747866839129
Sb 14.510833793483634 14.762605986864589 14.690452209667509
Sb 13.006201324003886 11.013129637858626 17.182947713383573
Sb 14.642233963729645 13.374144574501072 17.253379234066806
Sb 14.884283002998899 7.913466797794261 14.321228139362717
Sb 15.827784933207147 10.817738181983223 16.640363985828
Sb 16.86208576872222 13.388332018327963 14.047479736580167
Sb 16.86844099934339 11.801458172425846 9.762757058079151
Sb 17.158202247333875 14.260687900677416 11.300474991872417
Sb 17.138437143849018 9.877284307343475 11.875801700902828
Sb 15.724619504014965 7.301018532337211 11.650465813086836
Sb 6.460170241988566 14.186252792209768 16.337048310298865
