36
Energy = -140.49948178 eV
Sb 15.189501335759578 12.813292248331052 16.34777558829989
Sb 11.217627920034928 10.194687609849822 17.550550002386593
Sb 12.37781761415182 12.802052509743232 17.078801327637013
Sb 16.492465001677946 10.234395117425214 16.304977058407427
Sb 12.082520897580693 8.373475356902533 15.479149848787419
Sb 16.44238999059359 15.221478223947942 12.94711528634092
Sb 9.06622568209612 11.725853618791403 16.378381835168508
Sb 9.530736118624649 7.581242184366283 14.3883966136648
Sb 14.448729571942271 16.53691753232491 11.34176100563496
Sb 15.668873811602824 8.74129450294179 13.994070568750113
Sb 17.307689785862884 11.073224252250018 13.641700825798585
Sb 11.096908339223337 12.618315684638553 14.502135511118
Sb 13.184939825028342 10.07617720734099 13.420684629949687
Sb 10.930463456464542 15.506245776779222 14.066379037605195
Sb 7.644275029570844 9.707483198557231 14.88064912187137
Sb 14.951913890737929 12.790846181278994 13.496318582157233
Sb 12.017140200605057 14.906166714141225 11.449014744324364
Sb 16.307834038668478 14.66788123928019 10.134339701535819
Sb 12.244490897267434 9.647441074875083 10.45405064518706
Sb 9.359056571261917 9.789995475897125 12.570249778833908
Sb 14.170064987069088 12.692908559862122 10.179644053019308
Sb 15.002608112300344 9.991378748863182 9.5494400734882
Sb 8.553577845340794 16.006724664350642 12.4590020811164
Sb 7.867006535999336 13.416856334957167 11.475591260821771
Sb 9.974270450617958 12.00389121646059 9.777742767073313
Sb 10.3725563059986 17.059449897285887 10.469123044237174
Sb 11.695687230283104 7.407076115277923 8.719354153406803
Sb 7.392285525109969 8.584716312841602 10.862433083423442
Sb 8.82467700581835 7.358391633421587 8.709421664884097
Sb 7.6294741123822405 13.848494384017854 8.713664436422196
Sb 8.040829073952347 10.16792423863242 8.507330791004913
Sb 11.36201846030182 9.815581199709193 7.212768698581829
Sb 13.701751240180343 13.429965572636918 7.421362928895997
Sb 14.133603679581194 10.598253395048719 6.849718629015513
Sb 10.806253393323043 13.338937566947438 7.308212138784479
Sb 9.526700783664774 15.885949170702267 7.973653203043528
