31
Energy = -120.87261072 eV
Sb 13.660671167773694 10.098418438662673 8.773817746953155
Sb 12.32727607361895 7.601118241389765 9.431172745316744
Sb 11.485740626533612 11.72206407387602 7.895352213953068
Sb 16.321024665259255 14.116489453250384 8.877330336489868
Sb 13.822623592728586 15.439107690758235 8.256882758413115
Sb 9.534742417375174 8.12830552172845 9.780608744923914
Sb 12.2289365999711 13.836740931364206 10.064496566398011
Sb 15.23307948118292 8.837127608457264 12.481099340616407
Sb 13.234414357588394 6.778478956524189 12.061820994648588
Sb 13.752623501719317 11.165031893842816 11.451912684472534
Sb 9.650888010020285 10.969914334281873 9.935545574660015
Sb 15.822472904848487 16.634789305004116 9.95561008731674
Sb 16.28210807424615 12.570174484105987 11.576867245691336
Sb 7.339664396431552 11.50409861474798 8.369593720998031
Sb 8.822752055311053 7.655497124765711 12.58197213545647
Sb 7.334272406671525 14.301722099033812 9.076059615253534
Sb 14.424353563510579 9.714307603656028 15.094310030583122
Sb 5.706394635505268 12.437875503713085 10.549219252682715
Sb 11.255230058546585 7.387102556197593 14.0708715898215
Sb 11.781251617854023 10.215981193607393 13.882330787553336
Sb 16.32631109449132 11.855728641462447 14.689226589825754
Sb 15.554860340124943 15.158660128767965 12.628323920864887
Sb 9.73713666483737 12.875129370701144 12.618662124134408
Sb 9.626843641547758 15.075300810160028 10.733536467231275
Sb 12.60090057591649 13.38678116972903 14.386926533615522
Sb 12.716072249261565 15.54950283171113 12.54452038641923
Sb 7.659524589854943 9.803145700794502 14.246438478385851
Sb 6.990810234812303 12.400837138476614 13.135699328604323
Sb 15.123887877857134 14.24104035112482 15.537202079238826
Sb 9.81889867515617 10.88005149271357 15.950330378900574
Sb 9.923978159403449 13.759221045350785 15.46200385053744
