36
Energy = -138.52100144 eV
Sb 23.56030582811805 19.19290113401111 13.324409153154239
Sb 23.188525782911604 17.59875955616688 11.074282035967169
Sb 23.997422886968405 16.376641685243683 13.527484436662641
Sb 19.26896513612126 21.284558361195725 14.36677568513855
Sb 20.669506249004584 20.9827111873146 16.84580757505031
Sb 20.80359021139339 18.852349338416825 14.691634781200898
Sb 21.14559349129073 16.388675720552623 13.031045245859042
Sb 17.977006326237042 20.30593551679266 16.71701201800979
Sb 18.493917380834215 17.304706216497692 15.919971951273267
Sb 17.367039531164878 16.717598599599594 13.30511330982166
Sb 19.17884726423363 14.8159677669983 14.453131325270823
Sb 15.180871731898057 16.176682592904967 10.627983354367839
Sb 16.812703609656293 18.503764916817307 19.951073056672655
Sb 15.449747606329636 16.255484284260852 21.08885354922508
Sb 13.093934035334097 16.454330329748643 12.59696311271282
Sb 14.983325164975463 15.527298535108715 14.554584269208481
Sb 15.524590673986602 13.567454025686452 10.072282545011456
Sb 16.22911022841685 16.473079271685094 18.248541012791616
Sb 18.842920074144473 14.173374585311375 19.188539611006817
Sb 13.09827711595848 16.56921749244805 17.110285641508476
Sb 15.069282890095277 12.680282022192646 14.189496205194816
Sb 19.15906010707073 11.305064678435654 19.101659968278515
Sb 13.667629860451036 12.161249152798081 11.715965685029095
Sb 17.429313760812857 12.6235555773091 17.24259554010604
Sb 12.770806485101938 17.287814389027687 21.017070205595818
Sb 11.631810047660775 14.138833621192932 11.785804848702176
Sb 10.81915701614201 17.310270771869792 15.518453395999703
Sb 12.74342883182934 12.07305206490535 15.748146094769202
Sb 16.712931827121377 12.46987461381939 20.021069569077767
Sb 10.941706576904831 18.023062400914043 18.40634238759786
Sb 12.702486710504076 13.90230542663843 18.103322897846546
Sb 11.578553268113986 14.81571879703012 21.079875872400198
Sb 10.510689011903851 12.867417632789032 14.094403702901095
Sb 9.163646676966557 15.014084371280795 15.498308569413851
Sb 9.331251513531472 15.948596704584414 19.652533010094665
Sb 9.837991420997467 13.724320681548607 17.953629859183525
