33
Energy = -127.09835491 eV
Sb 13.086388079672288 16.19678756216657 13.048293091285192
Sb 9.123431460375636 15.823431661383779 11.039607837727166
Sb 16.318275316130574 8.882929020960978 13.761521765893445
Sb 13.983136822241402 7.183645195823566 13.82050012237242
Sb 8.7370463301138 6.536465445989539 7.748381075569123
Sb 5.821267563729063 9.303190315496957 12.804133728280302
Sb 15.992853919403098 9.229397303966378 10.88711484237823
Sb 15.110482945004806 7.514244279497609 7.564151230508866
Sb 6.678011671032566 7.142317645522233 11.027214034076483
Sb 9.06346264371308 15.174420044465414 13.943862098042823
Sb 12.767045231343376 13.470193915299879 9.107011416735505
Sb 11.888478640583518 13.714549833569997 13.801628767055417
Sb 9.181028498409889 14.945434410938946 7.983151051535767
Sb 14.806075609699278 6.6178917122563945 11.021317935953618
Sb 9.507966144747828 7.248758784006088 10.698489484073907
Sb 8.30574751093455 9.350832024058278 7.190621143057372
Sb 14.61002100091743 11.112429956391109 14.597031935359226
Sb 13.230507679787566 9.483932185782933 8.024558851168548
Sb 8.310676204750504 10.476261568930129 13.674011051676473
Sb 14.57148161889409 12.820048944190807 12.270701834770508
Sb 8.331346845447799 11.740782668513182 11.117463411566623
Sb 12.749167990486677 6.802545784272718 8.980176763430354
Sb 9.45771429945353 7.822177184811895 13.70486403532182
Sb 12.402634878826317 9.532392542220313 13.527174785674045
Sb 10.54405046587693 12.449660268620393 7.5672075673094765
Sb 9.930805519830072 9.995728311925554 9.487697828295227
Sb 13.418016468575912 10.496372021927247 10.955632768490277
Sb 10.707570240565492 13.459463357304031 11.243181613591826
Sb 11.778724266064627 16.02425247477205 8.196261417274393
Sb 10.612450877772577 17.505589788380114 13.9120879119409
Sb 11.526590101138112 17.431002861547423 10.950311166983338
Sb 6.19732402188739 7.593217285960206 8.054065716192952
Sb 6.779479736886194 6.900250945729354 14.057631706206703
