30
Energy = -115.96154918 eV
Sb 8.590331070804455 14.525912578398577 13.745778299109066
Sb 12.44035584165968 10.001686928254955 9.049546556880586
Sb 15.845543851472287 15.370230556296633 13.46399037097339
Sb 13.529760798535115 8.138208286360062 13.047088038649601
Sb 17.22217439209573 12.958417943103473 10.281238297852086
Sb 9.86981962561275 10.423275087680143 15.303982912932181
Sb 11.338594429471291 13.558666300409488 11.010181673427416
Sb 14.992773481784571 14.537994990051907 9.300851983839022
Sb 16.57942747758472 11.791563071224514 14.390018636967831
Sb 8.953499644322596 12.810094552649874 9.607455913317825
Sb 11.185368956506816 16.20187771593231 9.94959154750189
Sb 15.625502422907832 12.312350826079427 17.147388546206603
Sb 11.941850240749728 10.235418716557255 11.877657396154778
Sb 12.448620550840529 17.10761732711882 13.65228365781813
Sb 12.34924310849167 15.520814252024312 16.003191358509792
Sb 9.678358260891049 8.557562633133008 11.309424092255725
Sb 16.27762056208953 9.1819183212186 12.98359290597903
Sb 15.24619655378475 15.105004259243117 16.29288004963246
Sb 9.49633705357234 10.058741553105573 8.856653034040974
Sb 9.863267861115274 16.85056705661016 12.483133564281706
Sb 15.215315551621686 10.995549152295265 11.04815911313029
Sb 7.979923346616976 9.943557557076918 13.168355401504014
Sb 13.888710361445373 16.556405338892958 11.132859154933497
Sb 10.37977033070492 13.315434854865858 15.662092910453577
Sb 18.173649909242098 13.863114792095294 12.883289830391515
Sb 12.68065741294209 12.88801267928284 8.579799635675723
Sb 7.398634603533333 12.52910638359243 12.012264033947682
Sb 12.382310524061845 8.952727252701974 15.583305645628654
Sb 13.142138370289477 11.756568168669647 15.882283931476646
Sb 14.189699563276067 12.85705702310137 13.19711766455545
