33
Energy = -128.2764532 eV
Sb 16.606805590105616 11.4937760404922 9.393384449761445
Sb 17.84028279862226 14.945693916940996 11.64273165171634
Sb 15.949639628923858 14.262492067409632 9.586678004756418
Sb 13.929177299776219 11.02840368531268 10.481749588659815
Sb 12.319593403263404 17.727651362001616 10.513214910361372
Sb 11.058859913635574 15.121909309128338 10.207739267084111
Sb 10.920872340034235 19.011796828595966 12.67339309405496
Sb 16.9852339709206 17.700054007888163 12.158552206325265
Sb 16.072936415610076 14.041037797587821 13.813805070165419
Sb 9.721706042760816 14.572359696262971 12.614444870071218
Sb 16.16928673516372 11.311568246525313 12.300412234863517
Sb 12.833251733283838 9.551527240998965 13.654639007798815
Sb 9.591644897332598 16.9504262517943 14.182119189547839
Sb 15.627810698461605 9.080252029595098 14.204764235900463
Sb 14.196828537139739 16.94767992209109 12.60945639085279
Sb 13.455174311395131 13.788598253044173 11.295872284017662
Sb 13.675454704088041 19.580308681657108 13.592934032688337
Sb 11.941408486889463 15.633824172848419 15.223778278895717
Sb 18.74543382312234 13.388229783573074 14.957338024296362
Sb 11.550834024145571 9.505005111935034 16.29776460867369
Sb 10.339870777556962 11.891934545259817 15.164370384411413
Sb 15.397703636687863 11.359441685045587 15.969925982353553
Sb 16.63225482943458 16.868877437667354 14.937960148592971
Sb 14.93328051213361 18.891824542330003 16.168514131352786
Sb 18.879546019733823 15.833983840479362 16.54076074081836
Sb 12.931551625734846 12.487214416968113 14.11096962918973
Sb 17.957059133387077 11.957733422472886 17.347538381117214
Sb 13.633816267938135 10.439679640354997 18.04690360407016
Sb 13.264745931353584 16.952589375598784 17.52102842638123
Sb 10.549592900935925 13.964839490172432 17.17663486223004
Sb 12.912594947527433 13.185956074267633 18.715453205626556
Sb 14.727753958274477 14.536475940048101 16.907729368334465
Sb 17.16957733086138 14.508438409886114 18.50902296126493
