34
Energy = -131.35034672 eV
Sb 19.974976686234573 17.79696351520193 15.633727652927703
Sb 20.6026868168672 14.967147373533532 15.442726942937906
Sb 19.5492743120161 11.625086516869867 16.288076738926073
Sb 16.21178048445219 12.566395793201886 11.370804636794464
Sb 19.22265125996991 17.935151867334913 12.830975671477248
Sb 17.430925724454433 14.873510375545914 10.30788980725503
Sb 18.21498723149745 14.153803595806874 16.6657733953111
Sb 17.8773373421163 10.271262636712036 14.427290746991154
Sb 19.680083318553855 15.084300683362324 12.456055816256763
Sb 18.497113375481003 9.028190448027418 17.017999871857512
Sb 17.28443438040512 20.46663992739384 15.479771077331465
Sb 17.21701414961861 17.64702800896039 14.860051338656161
Sb 15.222039780272967 15.167618650927748 12.06078467321109
Sb 17.3125531326162 14.028035579372439 13.745868285756664
Sb 16.727118808240682 17.141816974293842 18.457969238573654
Sb 15.158071549352378 10.963112113120589 15.286360875866404
Sb 16.272098886889314 19.99267747538599 18.09114099325993
Sb 13.813583171601183 20.016270607250238 16.372213541968
Sb 14.64240055458789 20.500623649918133 13.556937500597568
Sb 15.662392585460656 8.62152078824607 16.83184229689522
Sb 12.214702817526295 21.710851866083175 11.450916275841509
Sb 11.716215271197447 19.629853771942546 13.284491343069261
Sb 12.090858489718107 24.037246745394157 12.793654925592588
Sb 15.70846813195652 17.403780041725966 21.15682437049719
Sb 10.813509502569197 20.69077033871433 15.698538816995992
Sb 13.945801523047258 16.693764449514315 19.02148661240013
Sb 16.689977804193628 12.925645048624665 19.53361647831645
Sb 14.915750423169284 13.067091848033972 17.25893163184186
Sb 14.488548356811394 22.636179785727368 15.418858670220354
Sb 11.61171166698056 23.386300688841917 15.481466417024732
Sb 14.782786311293542 14.66788789825368 20.906936433909664
Sb 14.09982430675904 9.01477648130426 19.21603809639648
Sb 14.823682013414157 11.147991648941556 20.95839079983556
Sb 12.896009267669424 11.580256217161821 18.831388377680668
