38
Energy = -144.71219024 eV
Sb 16.04228709867509 2.1852976455144324 19.12416148540034
Sb 21.870395717265463 1.9972604964340361 -0.8440726473751287
Sb 18.31817254007233 14.478256120294096 19.62303754371751
Sb 20.116823333033217 0.015121196065049016 20.161122837058763
Sb 18.707575556818817 19.349325018108246 1.6629669444269983
Sb -1.2134041807621372 16.525967932717297 2.9547376759843313
Sb 18.861320695832397 2.073086565896305 11.666396464385274
Sb 13.972729678226644 0.3211587449007518 18.360389272099244
Sb 17.603929005018543 0.11788955396256702 15.088048426320768
Sb 18.35629500463216 -0.643629291896378 12.323618163314327
Sb -2.6459189839425155 13.716257417802087 -0.028909722769004637
Sb 19.479327756563617 4.132621258646581 18.11015922242626
Sb -0.7614669167626996 11.499208017114574 18.770263461450494
Sb 16.824133159770707 18.94781145580122 -0.5350137611441365
Sb 0.06909138763917534 12.272626433562523 16.12977906762533
Sb 21.33954408483862 20.08948053035657 0.808410710449735
Sb -0.6537423375509556 4.40587189717964 19.854182555679003
Sb 13.254349426910174 0.4225639730546848 21.156291784077187
Sb 14.827522211229208 19.006314641089187 15.825683832913292
Sb 0.8834334177548703 15.759485118407111 1.1302783230415165
Sb 17.487398544526958 20.062422806966342 19.038032321700783
Sb 19.754285833671517 21.994054280144336 2.2612251556295018
Sb 15.241576061039245 -0.959253897290723 0.5300287525456641
Sb 22.09943749107733 19.135830057109477 3.4410257036571523
Sb 18.38960000782219 17.688469019699195 17.663680911286882
Sb 17.588986392214252 18.67150003656811 15.054069682588715
Sb 20.304856797269085 -0.4348897196611418 14.480776228791727
Sb 1.252262799583665 15.286031771460664 3.926602808232929
Sb 19.120683502831675 1.6683556490475175 0.09969316831451223
Sb 19.403958092667768 16.489872356686206 21.366701997390393
Sb 19.409683964704275 2.328478119115544 14.475940837484918
Sb 1.953534917759757 11.709416814749291 17.927333186692657
Sb 21.17698537347927 14.275262598325021 19.84894606482583
Sb 18.647595890600808 1.4202772605910463 18.09766071494865
Sb 14.69837931319059 19.68771140843953 18.61578547544189
Sb 16.150663712526246 16.49077452006176 16.274718555447006
Sb 15.814980258996622 1.744188542814107 21.967898580953396
Sb 2.366810163043167 17.657216506103094 2.7501158449380196
