34
Energy = -131.71609218 eV
Sb 18.776291678654918 15.31703957313612 10.937538498809184
Sb 16.315340374894895 16.217570640355145 9.759514977930719
Sb 16.274239688944558 19.090795282815158 10.312147106485721
Sb 14.523714109953595 12.684920437877716 8.52809499116905
Sb 12.226086476021568 15.597843632912312 10.90199991216553
Sb 17.126156705875392 11.467595803532086 8.812830370292831
Sb 14.773975352523536 10.044895426926391 9.684697303524272
Sb 16.63008290746704 16.084372341369107 12.655708877663828
Sb 17.318946146762237 18.98064983909108 12.892996061677128
Sb 13.255613310550144 18.435322871937576 10.858546053330972
Sb 14.60532020331786 13.890801997783694 11.168615532391952
Sb 18.430418830555116 12.419033137622158 11.184375326959614
Sb 14.059076149169927 11.219357507324787 12.269576820425716
Sb 11.987629604932938 15.746187126201825 13.769531530094701
Sb 9.648969823507578 14.038129516620955 14.116876324964254
Sb 14.377136998602843 18.590623737072477 13.581291165503416
Sb 12.467211668252446 20.621321057794034 12.797096746273713
Sb 9.914612346858158 11.591454353072594 15.601908273342575
Sb 9.977349541529598 17.782370779527522 14.321028096594125
Sb 16.766305225072035 11.080765025443625 13.17779475613665
Sb 9.242709073887907 15.786966131217973 16.35119737130047
Sb 12.081342326740481 19.431727703509903 15.339170298128831
Sb 16.643089238239885 13.316592027172907 15.033459573330447
Sb 13.781418676320104 13.256854307672768 15.054503766449422
Sb 12.641736746509388 11.044735398320178 16.505827266758104
Sb 14.371855265737272 9.457128434673873 19.0154620956769
Sb 11.376576237662697 15.16237567978402 18.212974533699686
Sb 17.12306058747575 9.926792021687964 18.393942202093758
Sb 17.56107257641991 12.658883268705475 17.717131048959313
Sb 13.976549233764889 15.328930435947068 17.0067618017186
Sb 15.520824011614073 14.073143954655569 19.151618904225927
Sb 10.80818342170976 12.337159534231121 18.262368392027412
Sb 14.039074548188054 11.949726587810565 20.37865233181507
Sb 16.24266084827002 10.232564362180847 21.109391624065953
