33
Energy = -128.10471531 eV
Sb 21.83304904623938 14.079980653348565 15.45107677700464
Sb 19.850333717373218 16.161951767007643 14.81697468971179
Sb 20.678323589046915 12.320983985424812 13.54022868025566
Sb 18.68061031781505 14.723832939327865 12.601172644765585
Sb 20.304673521769452 11.822852665937056 16.325899557273644
Sb 17.593118829998843 17.338228851522135 11.632154811134626
Sb 18.19626960820606 15.541946288786107 17.05025304826776
Sb 16.01426547160841 14.221576647718953 13.671869657873406
Sb 17.04274447230975 18.499609773368153 14.237141381635611
Sb 17.576863069810866 12.773174011080044 16.16691609897921
Sb 16.55883601091853 11.952751337387992 18.752531495149324
Sb 15.80944428978232 16.385617050755787 15.747460587183236
Sb 15.28184279884106 15.700678379239404 11.21418828078766
Sb 15.91706426330095 20.26528915511597 17.106370963504443
Sb 15.587513127183612 14.400544118104596 19.975065349453587
Sb 16.265853446269425 10.087775871359023 15.261524667296397
Sb 14.409461518742251 22.354807432193283 16.35382104613789
Sb 15.071693397224617 11.291578534152464 13.039269713873253
Sb 14.638636323416549 19.702415525523843 13.185438216871061
Sb 13.171925056431329 17.518089087800437 11.995668324680643
Sb 14.376865912032907 10.604281887984126 17.41271164034534
Sb 13.662921795798713 16.245820953067245 18.79048738103379
Sb 13.41117045715182 19.718913797307692 15.807717387390124
Sb 13.753379633919932 13.098978684194735 16.16518819272042
Sb 12.419369671799343 15.893746527137687 14.268499298127447
Sb 12.789402375213157 14.16157851220704 20.586931182648144
Sb 12.406284604211406 11.643441587791068 14.080012197353522
Sb 11.75727212462627 14.27959728145404 17.86414663236005
Sb 12.032389287315278 13.882411209933275 12.279397700797993
Sb 9.77650411549003 16.969531028688976 14.63643327422763
Sb 8.066342096762398 14.667858250123967 14.594792101449917
Sb 9.18281124969185 13.630959576390095 12.153764849519161
Sb 8.261360477026798 16.344532721020574 12.266329875473518
