37
Energy = -141.13408327 eV
Sb 17.89596769294161 1.360066722639125 1.8208060915383122
Sb 13.311252491640225 16.912048517716546 -0.37297062056486263
Sb -0.29931470207099875 13.714288803961413 -0.8555060036446025
Sb 1.5269027083373055 17.404853326795863 20.091946549483858
Sb 1.6256186344126842 14.448342481595404 1.2097245726218608
Sb 1.9062044810950465 20.108696692843203 3.694804137160808
Sb 19.74759310007731 3.921892679905998 16.511847927026082
Sb 21.698752567322305 0.5973119572252027 15.101289008660741
Sb 19.693430851444855 19.862979911109935 1.659728733222727
Sb 18.539009299913193 2.352300000065155 12.343020717258808
Sb 19.773764258684633 2.3426362875724687 20.05718626720527
Sb 3.3505920978690935 0.1519273629811211 2.4464707077064722
Sb 3.380703067348001 15.724293322808913 21.438751679605968
Sb 2.325208064806003 18.370795921267415 1.4406815299271285
Sb 20.71231063929795 0.520732383436028 12.373181644877885
Sb 19.299907818930592 1.0217973835491183 16.690448954946376
Sb 0.1747269085731361 2.4606593241693338 19.19035351447652
Sb 13.30754560391334 19.31110514118418 1.201255050496072
Sb 21.169465268450672 3.415718682138402 12.170057024499327
Sb 1.209519899899359 1.8446217273275132 3.548322328662802
Sb 15.559687210542728 17.867630944015396 20.22669660237115
Sb 0.4608907322252435 3.623382435328754 1.534208324777311
Sb 19.159922393599242 21.774647938521827 3.735074906421889
Sb 1.893133743968488 21.736768783215137 0.029738767992663142
Sb 18.523560932772753 21.60453157573428 -0.2488327093183445
Sb 19.110697649979894 17.755860203392594 20.074257912203592
Sb 0.21215214240214092 16.761606028207854 2.230246122769007
Sb 1.8966399143105237 2.3873447905427123 -0.653303914311172
Sb 20.48945786693632 1.718146802250237 0.5917164901021003
Sb -0.11856751876776264 21.670736318276283 2.207203993935846
Sb 17.28175319384616 15.544764500877433 20.34641602175084
Sb -0.0426413209341101 3.4247818648363357 14.91394400414159
Sb 21.35532968489355 16.547755702298495 -0.5879599322013396
Sb 17.646556832753298 2.665430747616274 15.038280763163616
Sb 17.427605468716045 17.561378164976663 0.23042818410311955
Sb 11.778766330524315 19.273717770810812 21.188868206663507
Sb 1.668764256744544 14.546465848360326 19.362507249503754
