30
Energy = -117.04017113 eV
Sb 13.771139075983777 9.307994151869144 10.045789415356111
Sb 14.860027378462705 7.4998828529178 11.984226097735254
Sb 16.628601380432023 9.193326502353349 10.51472770694133
Sb 14.518337539484998 8.79306386318841 14.523603348023606
Sb 13.595451702384004 11.835288621149845 11.484236154072725
Sb 16.43510832156705 11.73810272364956 11.924609594565176
Sb 18.14464919964748 18.7476840363666 11.871243128960263
Sb 12.524544592081227 10.752468947444862 13.89460052450151
Sb 16.588985954010468 10.795485850788715 14.599606693432628
Sb 19.75273127465159 16.65588431367235 13.064334912606661
Sb 15.669836646210127 15.286864013430465 12.481176417125708
Sb 17.87919347722755 14.79340012369199 14.184310353793162
Sb 15.324640978312711 18.121594886659103 12.44215064786832
Sb 16.96076610124712 19.30472731816939 14.465114180719585
Sb 14.253725947485824 12.105605589742694 15.801474921609305
Sb 11.252401264280666 15.367528326566998 13.330861763927997
Sb 18.51724508300337 17.167633405219373 15.652387800377143
Sb 13.793478567552746 14.7121358451478 14.589119817000014
Sb 11.90843914386747 18.066933892687242 13.443077920970511
Sb 9.681850741839789 14.929947709841473 15.710660845512605
Sb 11.136196542183638 13.391902652335578 17.70286461648528
Sb 9.924488904694616 17.394819929506372 17.128235164452946
Sb 14.422641440591148 16.566274059506863 16.703283892868193
Sb 18.719151708957472 18.656615368286634 20.240152684797067
Sb 12.376681337314324 18.52117650031249 16.20479615284596
Sb 16.639482477880733 19.167461806658782 18.340338757646787
Sb 13.324159184884849 14.904279794331085 18.772349141416104
Sb 19.22212446757365 20.35886766451751 18.007119877612052
Sb 10.65901633421962 15.73692822420645 19.396297886999708
Sb 17.508692829047668 21.246859445733666 20.118637348822975
