33
Energy = -129.12394421 eV
Sb 13.168804809781127 16.408108785734353 11.313191313612414
Sb 14.577135882868657 14.500766723523597 14.904318176918752
Sb 14.873074609087617 14.280569640184646 12.214738186280519
Sb 14.89533780296261 12.934392851262967 8.981439760527655
Sb 12.90031900822142 15.027689343896997 8.736217982652823
Sb 11.179723488323047 14.786737481059475 15.27410678187096
Sb 11.069682404512601 14.715582030888969 12.352588124188298
Sb 15.457369348584319 10.462846235567556 12.722462911153729
Sb 14.783742879489033 11.640409574144233 15.31389577813389
Sb 8.670310270550923 16.107413411365677 11.621790572231314
Sb 8.444444042505532 14.704173540009842 9.124331884116453
Sb 8.364101099428508 13.968089151347783 15.502542482153904
Sb 13.42212236370382 11.126816471136584 10.716934401275221
Sb 12.069899440165486 12.104529319359848 14.462168835968868
Sb 10.791003996399791 13.102948267034039 9.316809502639995
Sb 14.928362260501913 9.078114760261911 9.33678984668858
Sb 7.184583860864898 13.934454492720793 12.83021451473689
Sb 13.931007402306362 8.111529514785383 13.467065349932504
Sb 13.913453150890382 12.038785292112289 6.410594523237083
Sb 10.774155289876068 10.001171433021316 15.955821605080393
Sb 11.22208114210237 9.167923515787983 13.183431135678536
Sb 8.980975753286012 11.680675173353261 12.250338217500937
Sb 13.726482819520081 9.131879906917186 6.739464605289186
Sb 13.9619890243372 6.795189314901655 10.832953353493574
Sb 10.997480205201931 12.312752404236642 6.528228717650934
Sb 8.26683389434504 11.125904959607194 15.015202520875075
Sb 10.493302617935786 9.419091084897321 9.695896427411524
Sb 10.82248213864039 9.40362526584034 6.849335956735598
Sb 11.176748164242865 6.631147132435587 10.062757721782836
Sb 10.09506887983387 6.557468823462518 12.73459708362146
Sb 6.717624211338547 10.030147632363864 11.50009124224847
Sb 7.77485167343861 8.511109380207914 9.268147268149725
Sb 7.419392525715115 7.251903547532691 11.83547967712433
