33
Energy = -129.36592701 eV
Sb 13.207643370540156 7.713454832101828 14.051496606791863
Sb 16.81662650908745 9.47471916125293 15.936468517051436
Sb 14.734293119844875 8.856907612304468 11.868082285793317
Sb 16.946949903650168 10.234528799032391 13.165180139161146
Sb 13.987516524707415 9.318312609035024 16.316653826319154
Sb 10.459163916766155 8.690577224846624 14.088878150950896
Sb 9.254651774996681 8.758703971313778 11.428044865516199
Sb 11.544811049334223 9.281555584651874 9.775306244144584
Sb 16.629927472693034 12.056968594106245 17.269849816158413
Sb 13.193287493135593 11.22977686635744 11.119329267792077
Sb 14.981889111319035 11.220026259240306 8.84139645230427
Sb 15.431372108992171 12.63632183337032 13.309778057412505
Sb 13.28887857937201 11.772888162426078 15.06234986330289
Sb 17.11326733819762 13.959213841396032 15.200415737419618
Sb 13.568531129648623 13.34035903933136 17.462478679443453
Sb 10.445218182534763 11.557110176107795 13.644975516802301
Sb 7.765785091975501 10.977310389709707 12.606636093153863
Sb 9.28252454134195 13.006818687427012 15.886400739589302
Sb 13.277474583098126 10.628043817871612 6.573573116302525
Sb 15.130357937324618 14.02184368763167 8.12351251840099
Sb 10.612689666372326 10.881539844756439 7.569553331144918
Sb 11.185332734351089 15.019154726358545 16.61515759179957
Sb 14.819280738766409 15.560578056679452 16.116881147066813
Sb 12.675117146832047 15.034288155216215 14.161421064549428
Sb 13.965260564909006 13.259177892630934 5.5468305199967585
Sb 10.85778619985816 13.888175369007998 11.0678925687809
Sb 7.800975852297696 14.756264112112955 14.068427769391086
Sb 7.991989405696826 13.605439026384508 11.42435302825285
Sb 12.582513580457006 15.027540582566157 7.29976576784182
Sb 10.253511383739996 13.66983269077055 8.231271471504884
Sb 11.83832292379793 17.62911843996034 13.241315689557949
Sb 8.97329877637082 17.269055880649063 13.218328846025232
Sb 10.491945918862367 16.772588704264898 10.816189341149375
