36
Energy = -140.47918631 eV
Sb 16.67899057418202 10.322428439559493 12.353269737339934
Sb 17.963511967129985 12.443698511905698 13.851521241256522
Sb 17.13536814446693 14.070478135771037 11.57886930309537
Sb 15.72014161212016 8.782240207692388 14.58515246960501
Sb 14.546141048517123 11.507525410604728 9.139406269874037
Sb 13.615695091722047 7.459221052618545 10.72074472494158
Sb 14.74632492752197 12.455107104364373 11.890027252543934
Sb 13.7065090007558 6.986971240432151 13.55318877983829
Sb 12.864344386396251 13.508983722980362 7.895499589878634
Sb 12.333794118214486 9.971850411541826 10.139959474218635
Sb 15.841248745792745 12.999979716373597 15.70270945266692
Sb 16.184964577040194 16.38910416926325 13.014396971509216
Sb 13.471087264357411 15.15084878410309 10.174256370244708
Sb 16.66087343799968 15.74804354731636 15.809323357718823
Sb 13.6726572581475 10.33824104943447 15.95314070318613
Sb 11.105934612443948 6.3593438240123605 9.781469818289029
Sb 11.560905991479482 8.44146245083082 7.800618182333242
Sb 13.415904908664958 15.715361946569416 13.480578352724734
Sb 11.884334951561042 18.024918293617155 12.635595635907281
Sb 11.618957500887177 8.537286169861442 14.81196818198637
Sb 13.9280605560184 16.72301174000596 16.18522831369638
Sb 10.071815420055621 13.647785350818463 8.749292328307854
Sb 8.685720096667529 7.73878888204666 10.6894787390669
Sb 12.977725508806827 13.98750560329835 15.866405810243675
Sb 8.694781577559322 8.895229046258411 8.011981760419316
Sb 9.483894010683642 10.37348994385217 11.69569652967127
Sb 10.466932687900298 13.950914242973125 11.602144304488062
Sb 11.947179926843024 17.45005364554902 9.822478124745755
Sb 12.0372727145707 11.160150747976571 13.680091201696778
Sb 8.24589721567247 11.451204861942971 9.313155312927742
Sb 9.536670802419744 16.674424726839913 11.648984429518478
Sb 10.012442163665883 14.496500135920755 15.952083228025822
Sb 8.127917180187975 15.675615870968214 14.18638527354723
Sb 7.575052389188935 13.644706016508861 12.284951023802638
Sb 7.615971954659119 11.248838129991471 13.825519283322704
Sb 9.846402242084222 11.650113432580092 15.5958550337449
