36
Energy = -139.2374226 eV
Sb 13.036287689121203 17.25945710096008 8.421446719567355
Sb 10.814433017996933 16.522750060889855 10.075492211090443
Sb 14.62097670466998 16.460520515507753 10.782678242724117
Sb 13.48725399593869 13.333035371534578 10.333950649772623
Sb 11.902482745835536 19.187154992173475 10.27345687450888
Sb 14.686709171109907 19.27646411958345 11.15470502898983
Sb 11.8998386369986 10.876478806036737 10.617134170548931
Sb 15.629172794577725 12.157800415602209 11.845899984084296
Sb 9.830009851755156 12.685781155390966 11.43987616148183
Sb 17.508522446480065 16.380109066108805 10.73041228977382
Sb 13.767928780123496 16.831295376961204 14.185352551801989
Sb 15.37042457921393 19.21283416999964 13.97861840065926
Sb 17.868922518486084 13.951511501071566 12.311853064643266
Sb 11.784549951727646 14.758189253603227 12.182601268115427
Sb 17.901778783621317 17.827539093801658 13.24473492080797
Sb 12.936243579662143 9.488362853134488 12.935882092908503
Sb 11.446637736546286 18.577403974082983 14.310744480344422
Sb 14.431021086184106 11.466498050618167 14.362725725329184
Sb 16.883436438302365 15.481072994058705 14.556984379876843
Sb 13.042906213191536 20.530644827078454 15.999149477771402
Sb 10.99980428329138 9.912273575943766 15.065461304121959
Sb 9.507098634258373 12.176091184495807 14.2371815104397
Sb 16.616598283560585 9.709119579488046 19.7150737686834
Sb 12.000336194890858 12.653169969176556 15.549952287637892
Sb 18.774465350014154 15.000756308197818 16.72568860360133
Sb 17.126811136958842 8.494406968683485 17.119916208995953
Sb 17.43641375258323 12.437060108492094 16.763615050996606
Sb 14.523813002213332 14.257367844461614 17.51182403986617
Sb 10.29784610840825 16.655532669632994 16.00312457043453
Sb 12.937183809954524 16.644735026495717 16.957277969219064
Sb 16.5730553161011 16.174431198221114 18.25429229832198
Sb 13.795790115825866 19.157593404693745 18.156918105077143
Sb 19.224185623118643 8.705682793693816 19.034108898637918
Sb 17.668152407227243 12.402024914447411 19.591084830687674
Sb 19.339444979746983 10.263861665238819 16.57788465427996
Sb 15.527284386900426 14.28880919703557 20.190717310794803
