37
Energy = -140.38796172 eV
Sb 13.683579269396773 18.803986914567282 -3.068014752985019
Sb 3.1501050822569896 -2.2608429154682566 16.529163242776697
Sb 1.0401210152942488 20.695396934774156 -0.5864241597579659
Sb 20.624277209869142 15.307061179551978 4.804557821687611
Sb 16.30815031770619 21.136297442379067 21.386782160073952
Sb 20.017975623775982 1.605218449138246 16.84410517892526
Sb 0.38398376217467867 22.01433121444624 19.22015837251835
Sb 16.557794062267575 15.325634555132266 1.4479950215990112
Sb 2.8333090538697228 18.822655295151176 -1.9498371028449049
Sb 21.69164662504781 15.635000379838802 2.1549772388573865
Sb 18.092105467457397 1.0995052381029222 21.5107032103966
Sb 17.661469498995242 1.9213447393417449 15.237832017518812
Sb 15.276664231816632 18.948557717800224 15.084005528667154
Sb 17.29562866756293 20.80610851961504 18.642993973799307
Sb 21.133385083212207 21.33944270202413 15.949278147575315
Sb 19.852798678841896 21.099653412411477 21.652833688296457
Sb 17.693199993273822 17.35235589825589 22.014068615873175
Sb 20.049562053323964 13.319055290114521 2.8373149481529096
Sb 14.897260032869521 16.991189038367455 -1.0931210922262087
Sb 15.569822536677782 -0.2933075237758023 15.548372298464027
Sb 15.97280857517986 18.066525616541277 17.644955080222044
Sb 1.5186029225525326 21.876676616759028 13.036273502855266
Sb 3.017903603666389 0.38849105333404205 20.16348899848988
Sb -1.191827078434126 22.0907950540831 13.199997118532535
Sb 17.709222554505857 1.4601905865955436 18.610490913871473
Sb 18.659071393394235 19.802353911837383 1.5263318511702022
Sb 17.883333509473463 14.79910397703875 3.970063159216595
Sb 14.546759411917549 21.57960510197812 19.10994204597727
Sb -1.0800911776450448 18.439706688012674 1.655625073178185
Sb 1.4761636440265002 16.342298890413787 -1.0450775944480413
Sb -0.6945330200465624 18.09744714790684 21.105905155795327
Sb 4.655019084914958 -1.4361612808956654 18.861175088541
Sb 0.9038128310557207 -2.956339328945276 18.21274071555237
Sb 1.6096751759352652 0.07181778559649482 15.835132826072673
Sb 17.290570518018978 -0.10480292749355404 13.194394005979897
Sb 15.478408871103511 17.985761120864527 1.5201206743939537
Sb 17.85242529313175 20.24678888279151 15.277644858161201
