36
Energy = -140.30108993 eV
Sb 21.17154505346002 12.809835045748887 19.766190199316856
Sb 18.692471019806728 14.219156651827982 20.18345851396777
Sb 18.665506745973314 11.547181647551158 19.164877850426585
Sb 19.624330247807023 13.71222776299787 17.525652724376105
Sb 18.82249056663921 11.33738383930801 14.847669797937218
Sb 17.773900321253677 9.067458251426643 16.400281689944716
Sb 14.326597571872421 19.305288516411085 18.831149845487445
Sb 16.449726704690125 12.762684833417927 15.752338544630419
Sb 13.856699758516854 17.094920588890854 20.698984173175266
Sb 17.201478021458705 10.419341879469632 12.592862188792227
Sb 15.298430277914392 15.230707766292886 18.963767064198557
Sb 15.179078463230946 10.301801972761794 16.634258401520988
Sb 16.247221393204917 17.566159701076078 17.55625927140587
Sb 17.813865313435343 16.139139718642802 14.538129069271543
Sb 15.748945963912087 8.645724082221061 14.361578459095567
Sb 11.754859848211042 18.066060710546207 19.044478931242747
Sb 17.826631038956886 16.988217360005827 11.788427302021104
Sb 17.983590335999605 14.133725856447086 12.438745995121229
Sb 15.501462784304959 12.73291095717412 12.998397315400807
Sb 13.63255028529611 14.45959657186645 16.69902051773077
Sb 14.993362541494646 16.59573774919852 15.0832060768212
Sb 11.757311719036817 13.629729688488437 13.60013298297774
Sb 11.2037058394668 15.910141331290415 17.268798889888416
Sb 14.645587415620732 19.200618434353316 13.708213409148282
Sb 15.223482692610041 18.058886332564047 11.227847875032312
Sb 10.556895138488526 12.141669365635662 11.465467044732328
Sb 9.37669306076229 15.224615651014762 13.840307341182596
Sb 12.703348553989716 11.892922027993377 9.514812453263168
Sb 13.463980862336921 15.602066092962946 12.221605805473358
Sb 10.236906315346493 17.60991181509474 15.15382389730066
Sb 14.24991221673462 14.262953200178103 9.79412686853192
Sb 11.769543287403724 19.23327318387694 13.234129239717618
Sb 9.484934907209311 14.134276834802801 9.6770761462967
Sb 9.086203859776221 16.495632282728646 11.287244710979849
Sb 11.7364124260163 17.48628827980245 10.928333250337882
Sb 11.926209586765399 14.340816954314302 8.108786868539243
