35
Energy = -135.19868932 eV
Sb 18.08407622457462 15.774550534130464 17.59032787778431
Sb 17.466062228512335 16.128191139173612 14.779718215270613
Sb 18.06737672436906 18.738572545649983 13.674884851329395
Sb 15.77518532683611 17.36722210801506 16.885234095966617
Sb 16.09823658130538 12.915743775166131 14.903853846478874
Sb 18.3709275064877 11.96910239541401 13.384266138993505
Sb 17.205961248521493 12.984220991403921 17.538869109508322
Sb 14.457999087259315 13.191781116564107 18.470887405390016
Sb 19.639542241422802 15.028561130785326 12.648120576844589
Sb 16.5282674256198 10.075815492358261 14.643982679490264
Sb 13.83770270412588 15.283581637289156 16.58014950021422
Sb 16.537794138457695 17.920724594764142 11.347494509951341
Sb 19.38723760461113 17.606857929154714 11.366674248238457
Sb 17.783564668161354 13.612093775369972 11.03878727110126
Sb 15.599232197416447 15.24535519532819 12.103343869376813
Sb 13.027257052115457 12.0545685758189 16.154929337510016
Sb 14.095073525911722 9.27325803632215 13.377626480669472
Sb 11.324793569267166 16.042732031103437 17.735335449945428
Sb 11.932100958807494 18.79115515157775 16.57461982556652
Sb 13.853951373772587 15.750517518983802 9.85728187011483
Sb 12.991559343247115 9.136027107689987 16.014690923256843
Sb 10.682235962411621 12.83808289688283 17.676234045965092
Sb 13.271533821792131 11.194359432277967 11.302410765601007
Sb 12.253167824993465 14.808957870203171 13.585112847164472
Sb 12.040499190696352 13.50742485489838 9.934390074214882
Sb 10.53882970563597 11.840879580356422 13.524388629494533
Sb 10.455593254491832 18.641082904686215 14.376488399250688
Sb 10.288663498711742 9.372697385174336 14.96897219334817
Sb 12.225650089820077 17.15982048913503 11.895482874356533
Sb 8.829495622666958 12.98960884287259 15.572712070571894
Sb 10.005142111827059 15.771387983374082 15.165783760338197
Sb 10.211802939495174 15.098081465334808 11.493730125936668
Sb 11.114099758346484 9.59266625482754 10.275148144454759
Sb 10.012038610020346 8.010961219607795 12.408114583282183
Sb 8.743052737807467 10.502267490644329 11.63035183802611
