34
Energy = -133.09306677 eV
Sb 15.726905566186565 14.43615405103219 15.271576673339665
Sb 16.81714448077685 12.312948189349576 12.149221424850326
Sb 14.861232848307171 15.87481466766723 12.918137904278659
Sb 17.511673105547757 11.210359812032618 9.54746532081583
Sb 14.477672683801185 14.270102639540474 8.901936276503802
Sb 16.010953368843424 9.62963188259446 13.040538042258776
Sb 13.770569037312576 12.278495748579036 15.104718312501651
Sb 14.18970164126319 13.363278198049407 11.63708224409716
Sb 13.696108642636354 15.89457320677022 16.756128300378702
Sb 12.81935394288789 13.26734113854569 17.66466697666232
Sb 15.32114130992484 11.772444588504063 7.703924943627426
Sb 16.149981934206245 8.704004933491817 10.266546404024607
Sb 11.60698143481647 14.082605134894012 8.408138618298299
Sb 12.27914243207895 16.284513337954614 14.223326214588509
Sb 13.133583436287985 9.941609375893186 12.823837485146013
Sb 11.306420814804902 15.943864863043352 10.621739942940144
Sb 13.78716172274175 10.232329681202858 9.593705931106612
Sb 11.469416869882068 13.562720965411275 13.864184451354989
Sb 9.690282229731192 17.833049203267645 9.174418442622363
Sb 7.543474471886938 17.26356557359019 10.679218871540952
Sb 8.903483511070487 15.06782298890452 12.020298398306524
Sb 10.908125328607657 11.974136995502944 10.322681228767667
Sb 10.209092487805895 13.196401882930175 16.46340561761672
Sb 12.941865946070703 7.312596510783049 11.547672465966698
Sb 12.147842321843397 8.73454365724923 15.291920257011757
Sb 12.111113226103384 8.018051002774714 8.820810374458588
Sb 9.923745189472864 9.885617399937844 8.576736516904933
Sb 9.48314219718693 10.567827298675672 13.163744208363484
Sb 8.263085330074924 13.120138116070983 9.995120869168504
Sb 9.766245325835303 10.347480414916218 16.02892076017253
Sb 10.970354144838081 6.655168256208441 13.542986296105864
Sb 6.993710265268568 11.184931101491115 11.755936075497807
Sb 8.460593650610043 7.9536696993733855 12.918687501852297
Sb 7.772675201294739 8.847183583775255 10.224542748876765
