38
Energy = -147.92035048 eV
Sb 10.169300984692553 16.316052030388573 18.505620060712758
Sb 12.123336674416388 16.276141586248087 13.931712030538668
Sb 14.904212673383604 15.497018367450146 13.485420549680361
Sb 8.891674318358982 16.09780105939343 12.17954118359775
Sb 11.836504222371756 14.0835615119731 19.21534547171294
Sb 18.56248826973499 13.638764036986464 11.249874774248262
Sb 9.005287379529342 13.716821121894045 18.849992735095075
Sb 13.946523680850929 15.907050862345965 16.1751153722173
Sb 10.927573354546132 16.653916258453712 10.116756165265864
Sb 18.667380455671637 14.692194629775727 13.92191450397479
Sb 14.748411124923662 14.933331505741888 9.750536245646847
Sb 11.034292272999275 13.69984236756552 14.785206446516883
Sb 13.068055086529327 13.201675024853119 16.781536368121788
Sb 7.28927558322042 14.630011155810804 10.258530487328741
Sb 14.752695660861557 12.617223618024589 13.38298644225775
Sb 11.133682186820876 10.139396652324956 17.121906773058857
Sb 17.113256382001317 12.52828363075553 15.026515233571601
Sb 8.94163849750428 14.986376291169632 16.26379011013622
Sb 9.214015749791743 15.31959038485212 8.176056069986062
Sb 9.075332422456782 13.234604193083946 12.00157278217451
Sb 11.92171932648872 10.442381377218362 12.068171738834586
Sb 19.42669779241877 11.960254513853743 13.41150940396468
Sb 12.144045700649187 14.172620544262204 10.98446591389627
Sb 10.905424914765833 13.02002472381825 8.637045265992471
Sb 14.837756819885703 14.050946749144495 6.994755583953221
Sb 9.841980748826844 10.501760731716045 14.5595331785119
Sb 15.559221559768542 8.492884314655305 10.57090430505321
Sb 15.948331814901142 12.527191788040899 10.773341612083541
Sb 11.607922472112191 8.166001054611101 15.110812127285135
Sb 14.499747974550813 9.040876415160401 13.168342764442565
Sb 9.00641552520607 8.361202467444862 16.306625170159922
Sb 9.646656855813792 10.677843249882628 9.677247733715575
Sb 13.700986987697124 6.667190734614521 11.721368276534264
Sb 12.34919389348968 12.892120711884349 6.133249230987888
Sb 13.524835962364538 10.24973200614822 9.45241529444771
Sb 11.088608365336029 7.849749909833319 11.093760631877817
Sb 14.550574992218854 11.207683421425557 6.913770307730289
Sb 11.35366072524658 8.739731375737573 8.35092353881129
