35
Energy = -135.15316592 eV
Sb 19.494097527792057 10.509239202054326 13.336663908163166
Sb 19.927353265457825 10.82376235940137 10.491478959652364
Sb 19.374256746539956 16.889679783096707 17.766650258582835
Sb 20.053576944625178 17.199137126862702 14.985090897191952
Sb 18.8410045168379 12.952581807281389 12.032455751299374
Sb 17.293956371619704 8.643946379746245 12.756140099501017
Sb 17.710703251387883 9.027970777795069 9.916649118359325
Sb 18.246131856702164 19.04970423798582 16.185978528402394
Sb 17.84459796946956 14.480543611639808 17.392477617133682
Sb 16.1445257904483 14.406339015342006 19.752611439016132
Sb 17.25941706254232 17.28033159475444 14.140447681739909
Sb 15.994974787806445 12.849385831999864 11.94948311822482
Sb 15.441622433165792 10.159125015992503 11.217040684567976
Sb 15.65201678721681 15.859740950309654 16.12306576472754
Sb 15.469170612464385 13.798394574711189 9.305645148836883
Sb 14.999800838368246 16.885349990296415 18.88910806526175
Sb 14.5769920192023 12.435365477943709 18.33408922053223
Sb 12.26967876842563 21.260162102618352 15.124582108150836
Sb 13.627406967866781 15.894313871457951 10.095092179043766
Sb 12.62504766869641 13.23842444550711 9.591390341524109
Sb 13.869533789970912 21.03667509759217 17.233384251037126
Sb 13.519645606142333 18.680780088790453 15.56440870505153
Sb 11.891532600946817 13.428252507490383 18.758021316072377
Sb 14.675360267165475 13.186460092902099 15.482938476401065
Sb 13.684406303870167 15.631279246528308 12.998227815944562
Sb 12.400219068539634 12.733301526252728 12.466233926625431
Sb 12.276071872714283 16.244494109745034 19.348644166852875
Sb 11.781843762054427 13.394444269491146 15.861763789978344
Sb 10.323025202897126 10.441574933296858 12.68478552462864
Sb 11.243262522963002 17.791525671035522 17.097070061028152
Sb 10.998476287249288 16.67081082790646 12.926325637009008
Sb 9.978076785410842 14.142240113012285 11.832223096801345
Sb 10.10687584584607 15.716493585780915 15.468942001583912
Sb 10.016966564629877 11.058145814559472 15.40731679494321
Sb 8.341215384731854 12.357377205296585 13.474360298036634
