36
Energy = -140.459015 eV
Sb 8.076697554841244 15.38944415065803 9.710061403413741
Sb 11.798928841594057 9.742016516744307 8.593700522982363
Sb 15.96735363122796 12.194371369030653 8.512929842522944
Sb 9.590178998351817 13.03762614782889 12.951648560460658
Sb 14.20096718142312 12.883256400832952 6.364576066239571
Sb 16.41665947106938 12.073884397781384 14.78680228302077
Sb 8.75359350748988 12.715041166429822 8.881763346036715
Sb 13.768628786314858 14.234024567000246 11.854718782014858
Sb 17.025988350369246 8.602110145811979 12.058290887002096
Sb 10.742136413222095 15.859218472535801 15.963889856634045
Sb 9.854664326603801 16.982968567389772 11.382724595725072
Sb 10.590515487186876 10.063071632413697 15.83693483696075
Sb 7.2052076387489645 13.111221486026333 11.269543639429196
Sb 11.507872722495048 12.370699702945839 9.918318441868985
Sb 8.85070643169863 15.693795159220157 13.779628998899547
Sb 9.321017262671086 6.713735102504806 11.972827478977019
Sb 14.494665959544678 11.215637166802615 10.8314649881797
Sb 9.396558970210995 13.672842658311975 17.358448805629394
Sb 15.302386630288188 7.795249733013243 14.168309816293354
Sb 8.027292049262675 8.443459375164363 13.850622578139815
Sb 12.293659534813402 10.54509393007688 13.526542866187606
Sb 11.900173990406984 14.036380854125046 7.59984309562753
Sb 14.971223036810263 14.570612491367665 14.51552713985693
Sb 8.36976526227885 11.878186048370164 15.27788186556699
Sb 14.384974389396206 10.18553394816055 15.51119217925547
Sb 17.124573802067037 11.420586113413448 12.074052690747832
Sb 9.245972426327745 9.55342401866302 11.476271537079207
Sb 11.928413106884676 12.166481100843137 17.424229489572063
Sb 13.581734625105431 16.210974239556148 8.539271911720467
Sb 15.778389099999128 14.886340433963364 9.889346055471817
Sb 14.044782971198993 10.073516739768088 6.873645725279864
Sb 12.72249796915674 7.781965807940984 12.70293417054674
Sb 6.839544372552113 8.012559780641288 11.267397401142013
Sb 13.96699341340635 8.458340788454782 10.132952791478546
Sb 12.274919894099751 13.628753770825709 14.973094155171387
Sb 12.7541235108669 16.871337635368373 11.24237281484977
