31
Energy = -119.95251997 eV
Sb 9.85020691486133 15.663341985398691 10.349653790358124
Sb 9.80574621136572 13.81476763350763 12.581557124883625
Sb 10.854092218310257 13.00033984578653 10.012481117233424
Sb 13.709721637048698 12.718458398375043 10.047326183947238
Sb 14.887385533013747 9.133389290939355 13.390643019761486
Sb 11.729478716434237 17.164058061435043 11.972664063700838
Sb 13.185280938151836 11.3710258680102 12.688533291323647
Sb 13.786593252552189 10.466975811778644 15.663060255771509
Sb 15.151187349026355 14.92954998476112 11.175087144553919
Sb 12.539672293911815 14.674607542028086 13.167515190286435
Sb 14.293475322357834 17.61700912810819 10.79400043679144
Sb 17.538369774482277 14.441857309948036 9.593550962672087
Sb 16.138562392787048 12.720552461273007 13.24726007450554
Sb 16.563613054664444 10.637580651029262 15.232110235400775
Sb 19.5924950858133 14.145280905146098 11.585033319143935
Sb 18.303976352632162 14.471005264412199 14.172631264863604
Sb 17.849008787183735 11.932530114321164 10.958510348768487
Sb 14.84453445589914 17.97222609629598 13.950563940583843
Sb 13.155532779156692 16.204816242227153 15.555347383050567
Sb 17.643910242081457 17.260906495481635 13.839288451685812
Sb 15.27898120450928 14.41123574270347 16.2884525777315
Sb 14.722924702496362 19.91111501023424 16.19999531937958
Sb 12.680263921873609 15.796346383388864 19.45429604466899
Sb 13.15154593597902 13.343188901483835 17.956618409381807
Sb 18.529953572664315 17.541179938466673 16.538731052989572
Sb 17.295718865446087 20.031668969010838 17.389225887623287
Sb 16.634184214633038 16.124875917321283 18.203928595026344
Sb 15.104911186909737 18.520130073133615 18.678298637384895
Sb 12.351801601374502 14.142789503976857 21.830737080744672
Sb 14.908188755760209 15.302585819313341 21.2462805095876
Sb 14.375164633079843 12.57409116300105 20.483473820062002
