34
Energy = -131.20115166 eV
Sb 13.284586878245241 5.681489854988634 9.937724944387202
Sb 15.218268568931832 8.83106199983581 10.848297751900905
Sb 5.790551677432557 7.428758288906531 13.417100977331659
Sb 7.215337529194697 9.886888118228924 13.769298106707074
Sb 9.173561073089587 14.96126136237569 7.401672767095381
Sb 11.98038382534826 15.806483290079738 10.184153169258979
Sb 7.038169403028709 7.064364473851459 10.691253309998475
Sb 6.368832540925505 7.4854238446315735 7.820570914286441
Sb 7.618863531253866 15.62562647466286 11.026760418328909
Sb 14.607979139301124 11.552731771500708 12.791118953282934
Sb 13.7115122604838 8.608118289891916 7.07401464777867
Sb 12.254158959967247 7.718664134119316 13.889844144830686
Sb 14.297594916444416 11.41036552446073 7.504091745328641
Sb 6.560234730253269 9.885673546663176 10.805406226174266
Sb 8.322458001146352 13.200295576676277 9.614610451379214
Sb 12.016663746337516 14.674327330789254 7.221197666331995
Sb 8.470804179231147 7.381561010233507 14.458565097171219
Sb 9.151775865336552 8.023306853432276 7.858754643666314
Sb 13.462601701646635 14.228358276852644 13.084469765773187
Sb 10.118684107548185 6.649657793141288 12.166534558409369
Sb 14.70517103675476 12.669325484354756 10.129601324575065
Sb 7.2962792580632865 10.209403577114275 7.9030108770739895
Sb 8.980603403868288 13.014345353401918 12.58320795461387
Sb 11.960328351797893 10.37727204397195 12.724038557415895
Sb 11.457808196413712 11.962435886172786 7.661036946467443
Sb 11.76061940909229 12.991829701321862 10.599350973971404
Sb 9.637380773125258 9.062997191891508 10.642386516769244
Sb 12.573412530529197 8.475737912471473 9.693876202158606
Sb 15.589897518044992 6.95037804416238 8.61423331248109
Sb 14.478538912753717 6.504105171327318 12.462268352281423
Sb 9.45571471487082 17.056017088652176 9.330468367571168
Sb 10.163230990472156 15.559847026282526 12.816256657441862
Sb 10.38588825924938 11.586345828678802 14.786709042140567
Sb 11.574956529818548 14.15839391447101 15.170967175616996
