39
Energy = -151.28986913 eV
Sb 12.252682367550241 15.273815665198626 10.185320349832056
Sb 15.662969651117441 14.698232549862906 10.639978860680841
Sb 12.163458313807764 12.328666022487418 9.976346970968056
Sb 13.669354975102936 15.13635857017383 12.701475686784475
Sb 13.503216127126933 9.006524273835225 10.42531360015785
Sb 15.818759921279232 10.42113941788415 9.543276735911244
Sb 17.87539087172877 9.320463099635415 11.195131441954
Sb 17.857976994432725 14.218665276489752 12.361165518530512
Sb 9.622985593170892 16.011368765465523 11.010580813560562
Sb 13.260751971224508 17.938651490735573 13.378231514963861
Sb 17.486618516194422 18.940826810415068 13.557520627481932
Sb 14.587257788063914 12.048572882337083 11.571989862637087
Sb 10.205348729729735 11.30670303207215 11.803041305283735
Sb 19.216221583947675 16.74238228168917 14.197285821759554
Sb 19.23501329356654 11.650511568772762 12.337844762473281
Sb 8.555796878973325 13.625025417104805 12.284078646785488
Sb 10.374570138828798 18.00106283973352 13.05057935701599
Sb 13.826690673679545 9.18435967973938 13.22712571736942
Sb 16.952040345794316 12.038661477741234 14.105179031031929
Sb 16.55029048431978 9.016635971766027 13.727140310091343
Sb 10.121414913164339 11.28801548709116 14.821967744135721
Sb 19.866637020442873 19.40176268533734 15.160524589235663
Sb 10.530427192254493 14.035113193618058 14.325539376743967
Sb 12.730668317798605 17.139711172392914 16.1210322944877
Sb 16.13004234827648 20.015675291221463 15.94133901944664
Sb 9.884479807318682 17.717613038899355 15.946039234998663
Sb 13.669321561391612 14.231175527757303 16.12085738274925
Sb 18.379718410653872 19.62909430010197 17.64677366270826
Sb 16.97428380265395 15.804565308225104 15.791098402779744
Sb 18.17606548417523 13.246038444599552 16.484439034368176
Sb 8.98547636455971 15.00204460988293 16.505585624514655
Sb 11.649344151492807 11.117005546806062 17.307787480866427
Sb 14.233375745399568 18.923826156645475 17.79990877533821
Sb 14.352391670646188 11.313530303116325 16.26419492430956
Sb 11.353626881226928 14.012940812330394 17.931773091449035
Sb 15.718646850320487 17.059113132930904 19.479766962041662
Sb 18.257782230159314 16.799476845616606 18.137416205593823
Sb 14.45382094879757 14.491209671223846 18.92443426356898
Sb 16.20914984145565 12.21753014089101 18.36498375721753
