36
Energy = -141.37176263 eV
Sb 16.69368096616803 12.065803242185345 9.646825570048422
Sb 15.85026693698146 11.521872752435607 15.480958877339825
Sb 16.370381822037757 9.821655166852748 13.158881651262327
Sb 15.910555206958389 14.872966437948506 9.905332570597837
Sb 16.458047656326375 14.060468991239265 14.27220013736007
Sb 14.869427767542119 11.808101354404585 7.409442350278018
Sb 14.7826452866123 15.817559809387635 15.865086934385083
Sb 14.440853294475776 11.032139616028315 11.208036128455861
Sb 13.921131974327793 16.970364562436004 13.345372870910538
Sb 13.033485116228313 11.514207167770023 16.099994707761528
Sb 13.611004371729091 14.330083176759594 8.185012961647928
Sb 14.52955114544849 9.278551491114936 8.94043138412543
Sb 14.379277329800756 14.32624329940859 12.286442999305066
Sb 15.172779606622152 7.394073262665744 14.255253604171939
Sb 13.927668718766672 7.460759225646272 11.60667243837595
Sb 12.540813691414382 14.297326675390645 16.899152784633426
Sb 12.798213803028615 8.955251788134834 13.79252134601446
Sb 11.795293448582013 13.51921736490711 10.282248009789262
Sb 11.640626510249707 6.0055040103278685 10.566142416476186
Sb 11.694876485187 12.080753123534231 13.590695594748054
Sb 10.732893344928751 10.172338072868405 10.383078156789724
Sb 11.783100651690274 8.196724617398543 8.615137313037463
Sb 10.292810926843574 12.10196172531853 8.22881590624259
Sb 10.882347100050321 16.2828490890691 10.611418966220965
Sb 10.364245370076514 7.6860033912721955 14.624741495385742
Sb 11.05579119773542 16.727929711537765 13.46184291454545
Sb 8.478621277345017 12.978056779980582 12.044698017873383
Sb 9.296848072800776 6.695301755116025 12.125161684983969
Sb 9.54332896196008 10.451602019255839 14.857327438939958
Sb 8.157984574356304 8.921611585522378 10.675871245638946
Sb 7.668367603269539 12.381073194845355 9.358657473523236
Sb 10.408251093922344 14.324478299013787 14.93659534059878
Sb 8.056760015839378 16.85522802266161 10.67607491606701
Sb 7.344913401242422 10.48052560140405 12.99950950453759
Sb 6.326415971295524 14.930201037267057 11.938003477609612
Sb 6.55873614021984 15.053209420953861 9.0383576523818
