38
Energy = -139.34312219 eV
Sb 16.732064566185176 17.392899465867483 23.34812700805767
Sb -0.22092669414145627 19.20218293164134 20.301626766285445
Sb 21.465709115570235 20.198378034323703 18.7932059391007
Sb 22.51615522191997 18.663343008693527 16.307622002346093
Sb 18.90948557453803 21.095392805925684 17.880913430226972
Sb 0.41392491502037826 0.6559610142713849 17.296166686267835
Sb 21.224207754879252 2.6726831795269477 19.29052674975938
Sb 3.974430190804317 21.41368365254531 -1.941158468411691
Sb 8.985017102463333 3.187030271249659 21.054751003956998
Sb 2.944169327157453 1.3103978792958995 18.311495007220884
Sb 1.3877708641587132 19.016765902361104 -0.040389983732105
Sb 20.585047219764053 2.137066140563327 5.794542036047412
Sb 17.90659150733658 14.866838147608862 23.945147409874384
Sb 20.74209345476231 17.862396082333238 21.408280690455147
Sb 22.486788874896405 0.8401809256659887 6.779284689525292
Sb 18.777371493105544 23.694045735966135 18.74964256582407
Sb 19.888043631952364 17.197818987031955 18.74766120102877
Sb 3.928862170898775 18.62718201397603 23.0197392070692
Sb 1.4638827896605229 17.561954296135212 21.89539877289545
Sb 0.5494326388140305 18.073464642582852 17.719738502616313
Sb 0.40753458816938737 20.26237045451389 15.890565137093446
Sb 16.158098533273936 16.357994567157178 2.726512988925524
Sb 0.8669084077507901 0.9903701761546058 20.111923901487497
Sb 23.18970583553668 3.218856151165077 17.275874273925563
Sb -0.6360999972143115 3.6566620779398034 19.99733766598892
Sb 14.78125993093741 15.797107751326935 0.3656515250955758
Sb 18.755178195245954 16.355230990165317 1.8410981807875166
Sb 18.204565213553856 14.939199528922213 19.809624531917525
Sb 16.2236230788365 16.89342421349254 20.534312564721333
Sb 21.51485421232367 -0.26112501736038723 19.231791222252518
Sb 21.982045194459882 22.16674755655786 21.210817566935624
Sb 11.421930739631833 1.5290129457423827 0.8852230712960901
Sb 20.045364183290282 15.109504231255826 21.98899075141552
Sb 1.4588378759651748 21.78740781864828 -0.9110675150910869
Sb 10.204308316602068 2.357200875384766 23.166274332614417
Sb 18.230111387054897 18.997690869688014 20.255524482023002
Sb 0.3824061281352356 22.115629491282924 20.43932005218368
Sb -0.9323787305043973 22.16094961937161 17.753606106711388
