36
Energy = -139.28057482 eV
Sb 17.65267736978229 16.847905570796435 20.62657365307458
Sb 19.141372952301296 13.975909977588824 15.675757521872029
Sb 18.193995110810807 14.330299329847016 19.161710252072783
Sb 18.960487672074997 11.416501056916376 17.190250012783288
Sb 17.636472936729838 17.94422981835034 17.97544530230511
Sb 16.869935616236692 15.340645153133854 16.783121795006277
Sb 16.838634373700994 11.768018831236303 19.131530522956446
Sb 17.89254396226241 12.556868522895446 13.464232708748844
Sb 15.192982230620904 17.771750468568772 19.482706957545332
Sb 16.874284249959725 10.558408945338288 15.36397326926094
Sb 14.42531836730767 14.969688606963263 19.237592844251257
Sb 18.33802529428517 15.873060133772242 12.311657629150208
Sb 16.527100820053963 17.34127060418074 14.085355496548056
Sb 15.19264959290379 12.430883092236403 16.822014274158644
Sb 15.150518506155544 13.608005556867381 13.421677722551097
Sb 16.608771923510027 19.921713769468493 12.485764427003556
Sb 15.440462751343667 15.978794839576222 11.790923981198743
Sb 18.221339252950063 18.241572901587034 10.591235553171153
Sb 14.700812536348275 11.63639876348018 11.394960367824009
Sb 15.717151940481129 21.5488156155712 14.8777909255335
Sb 12.222978696249436 13.469858913172132 22.47550268503578
Sb 11.7699314810982 15.268228314865345 18.185718236694708
Sb 19.95646904124488 20.46217075325323 9.850949217797764
Sb 12.244749171074865 15.864353403679205 20.966294253531903
Sb 11.886717213109378 11.407209701198983 20.812987465964518
Sb 13.804721236821127 20.530535695218582 13.00123291679672
Sb 17.515952951625373 21.86368640745784 10.26224861395205
Sb 14.333669813909587 19.209575433640495 15.453061764559939
Sb 12.775901987796797 10.816871929747718 16.902280375718313
Sb 10.949898498366599 12.49729901540937 18.382192489131135
Sb 17.67613177999514 19.977429573922787 8.198452397253625
Sb 12.404047162210356 14.447330836902639 14.40765936492777
Sb 12.30214766101983 10.406643904026879 12.350828821125974
Sb 11.973398463730371 15.015056597528304 11.759709844482611
Sb 12.14368150794762 12.503249466541467 10.390343475727663
Sb 11.32131106992398 11.839392346012977 14.620296125776768
