31
Energy = -119.43960183 eV
Sb 12.838786739918698 15.0995226467329 8.536535255210444
Sb 14.054837738015067 13.211571425601674 10.207188594317556
Sb 15.107660646159855 16.840758309533154 8.788173721038731
Sb 17.052521086245328 15.70392063975058 10.61891239153488
Sb 14.208081042816577 18.89683608189756 10.587944501952647
Sb 11.782030506789129 11.459493840603624 10.533238770571915
Sb 11.160948059674109 15.667549402868628 10.959333086638468
Sb 9.832016274774231 17.908459446702253 12.285472212637252
Sb 12.71795740452334 17.44337845502598 12.585427415093783
Sb 11.869469264265124 13.397516555171718 12.70984723514065
Sb 15.94064983662291 10.868652270581954 12.224273416199107
Sb 16.543684278092666 18.110255847143176 12.168689513951158
Sb 15.061935338559676 8.152789092476763 12.666922608426503
Sb 13.175827399646652 10.35244826700109 12.861947725287349
Sb 15.49334971110098 15.518926776706557 13.056302550292035
Sb 12.50908718452243 9.292259037889547 15.953397232755744
Sb 14.976056554903224 7.978575695037837 15.542103830630918
Sb 17.839641149957103 15.932139484675933 14.757317461041694
Sb 18.538520097662616 13.163930934834129 15.208541052969649
Sb 9.144109516320247 13.804466537436634 13.753221789223717
Sb 9.503449821363779 16.45193885342822 14.778474009024304
Sb 12.832486433995873 13.400423832972901 16.31497673643491
Sb 15.83277676268707 12.36494712950994 14.679740995656227
Sb 13.52165546617965 10.885777714186206 18.01145843820672
Sb 16.14258282445471 10.495813565842342 16.864468148364086
Sb 12.145161031651067 16.337717670611497 15.977301284205014
Sb 15.683425133562638 16.49433331377236 16.57400005702332
Sb 10.003365174122848 12.597619322282565 16.22463725359031
Sb 17.82593227852628 12.819466186785398 17.97940519813654
Sb 15.505271928897942 14.370025025458686 18.307763325514035
Sb 10.878811248029113 14.700574571519443 18.005072122971153
