30
Energy = -115.97924337 eV
Sb 17.223502709286137 17.580200917783323 17.959058262928043
Sb 20.049268923102236 17.76513884879802 18.044268826546862
Sb 16.82224921627595 15.065209381046339 19.281349440707217
Sb 17.36297774277536 18.8219919314565 14.546278392118458
Sb 18.737557769314712 16.551253929125952 15.765830715396575
Sb 20.82216339714153 15.107911650620085 18.938345733061933
Sb 15.606044848695914 16.595771648927936 14.168325938592208
Sb 15.712830911764483 19.940667161783004 10.902322263777808
Sb 14.207877226622173 17.65694678182714 11.888476124766479
Sb 18.240405145535302 18.879189492005697 11.796010069019692
Sb 12.745467775784665 15.136097379040534 17.792253062140194
Sb 14.226789625769 14.774795947846108 20.16243000360121
Sb 18.990218729559913 14.24614982615998 20.958946689286247
Sb 18.820917393383223 13.217216032940463 18.226482024434524
Sb 13.241816662508066 17.21127541464474 15.748920064560393
Sb 13.745175343798989 13.24282974203773 15.889352501994379
Sb 14.822571788418227 10.097371017541501 10.63528398860836
Sb 11.801659781820563 11.229705914068056 16.51834387204661
Sb 13.686012630101237 12.309988360722057 12.165910081771775
Sb 11.632912012683935 10.781357432991923 13.507583038505102
Sb 16.473799760518833 17.304495955795044 10.130377843489867
Sb 12.424704713427822 14.9969095270104 14.016090449012301
Sb 13.420787775477764 11.133997002445716 8.300456914298803
Sb 12.523844408010143 8.754658108802868 9.597823906529701
Sb 9.447549870858408 12.695186665233816 16.68741210881578
Sb 9.181368639270266 12.259895570353672 13.378608293948233
Sb 10.25711376174527 9.481156015879039 11.189004501349261
Sb 9.655105348462806 14.73701415164641 14.729644043938961
Sb 12.198433533400157 13.225667955522473 9.898204350633415
Sb 9.611884974048571 12.072705751021283 10.356357734474388
