34
Energy = -132.92038866 eV
Sb 15.961849572408497 8.365713802087459 9.424075006329284
Sb 13.78932047209417 7.381113812307964 11.076902463407839
Sb 13.407339545398452 9.877783348380463 17.420232948219425
Sb 13.259653089086923 8.448188550186405 8.459493067438908
Sb 16.428527556284518 9.516225869890366 13.044378494543261
Sb 16.520105942180084 10.981749074758445 10.561029803214932
Sb 12.311535258788314 8.396754686056527 15.195139929423826
Sb 16.937631179743978 11.550845775711903 15.060858871936455
Sb 10.608488977277291 10.712284697413825 17.772809254017076
Sb 13.560442907864497 9.655722625706286 12.860101354844504
Sb 16.764070967834662 14.433040143250052 14.582804324480252
Sb 13.004216814125623 11.305182427246557 8.30811084643683
Sb 13.949302977794817 12.293348962617166 10.844381083900378
Sb 14.253091710776594 12.123713172607038 15.783478219673786
Sb 10.056209575368493 13.524166427392235 18.164663925201292
Sb 10.602325075003076 10.849523135973424 14.94233460273507
Sb 15.771645185262642 14.08249659007375 17.280974343029012
Sb 11.914158701249494 13.679839713333422 14.069938988547449
Sb 14.241357237721674 15.701288949398695 13.787398667083789
Sb 14.774949335190856 14.76931281702795 9.564372164133376
Sb 10.404261874425274 12.30228636474253 11.35017132196014
Sb 8.042380303693053 13.65108206605879 16.070813729080264
Sb 11.37852558723477 15.325332647634818 16.35703584550135
Sb 10.161874138407777 11.04468943746998 8.696625055314602
Sb 14.095792388467137 16.368588014088097 16.59739781382378
Sb 7.732054757769728 11.103613797776356 14.756914795193836
Sb 14.089628315245935 14.603975419789828 6.7473680700412455
Sb 9.200919227654666 14.978629164251824 13.67548383648959
Sb 7.75022359372085 12.792933335491755 12.369061441404078
Sb 12.487132479537978 16.379765804563096 10.182572032428867
Sb 9.963169602145351 14.990726493415133 10.31992191470249
Sb 11.3145759350354 14.699972082913213 6.073853735826087
Sb 9.31938352068087 13.664149813877026 7.823801051678168
Sb 12.487629413907154 16.989734195888584 7.319274217340065
