37
Energy = -143.8100325 eV
Sb 17.21195652798636 11.388776968334895 8.975870468635607
Sb 9.23324792927487 15.71161285152449 6.291820564883181
Sb 14.764426045949108 12.660031082246828 9.621145534900581
Sb 16.31815728577666 14.501004758515267 11.172230127400034
Sb 18.44569737680711 12.529858839639873 11.277703937762016
Sb 10.444512541208589 16.6261350735524 8.768030847087191
Sb 10.571656082152753 13.155231588151299 6.420263333695828
Sb 14.63202341188989 17.117748242519838 13.498292815358253
Sb 7.7109877498380826 15.72190812247937 8.73314859077599
Sb 15.579009788526426 8.81561584978223 10.17360421205025
Sb 11.266270495819745 13.836398200749413 9.22212876530386
Sb 17.549581230229986 8.37809547439713 12.21538691295727
Sb 16.953905521476717 11.05421533095592 13.320071569363671
Sb 11.9311415845953 17.299435105328097 12.515814213393982
Sb 15.38218658260688 14.382371529050792 13.941419080319054
Sb 8.310346290154072 11.725735768986297 7.424381650535257
Sb 12.4874584302901 17.507169767744244 15.360495605934165
Sb 14.407369350839568 10.808867725408765 12.000208837807953
Sb 15.33639963539694 6.5095921977697415 12.043984034498907
Sb 14.54508368614984 9.062225728263662 14.555231741944612
Sb 9.390988096163671 15.253426692599056 14.802141143916543
Sb 13.42399971376436 11.101434852519837 16.166658569844195
Sb 10.994051362886768 10.6625188192958 10.779959877245876
Sb 10.314580259369508 9.72735890348099 8.099203827249328
Sb 10.818960267959893 14.655809732262862 12.336040470068811
Sb 8.531776357955023 13.195863691295912 9.931852709653072
Sb 11.836430384955511 14.838798394331047 16.26126734524112
Sb 12.78174227138006 13.187564950032781 14.07586425805235
Sb 12.025175421312523 7.9549995784228775 10.5892176265688
Sb 12.758556996427243 7.127314470520447 13.302945107721163
Sb 11.032500256053098 9.659809962210947 16.708580970088526
Sb 7.779417878426113 12.931339130173827 15.478345256785591
Sb 9.166680420735373 8.492443905745242 10.45151561888843
Sb 8.797493979117176 11.255340542392782 17.569396807708127
Sb 7.8665517584740945 10.85352189155946 13.523096205062492
Sb 9.797507488612663 8.860453892463832 14.274530990269259
Sb 7.410015974478383 9.25781682033161 15.925996806068337
