38
Energy = -140.59617961 eV
Sb 2.4460065668540865 1.818500636964181 6.085456054345268
Sb 3.4188218171972977 18.132917979614895 14.769119820970413
Sb 0.964154391665171 2.115709495193008 14.483536204482785
Sb 19.61494382992475 3.137165422763588 3.4163924687387555
Sb 1.2899143297045266 1.8982196231996071 3.422444485052126
Sb 19.377989250421823 0.46291361453269647 3.920375324187967
Sb 0.08149266382861507 -0.30293336144836563 17.721616739289416
Sb 3.3773885262365697 11.36215421501927 2.2278553393535843
Sb 0.3980746267948469 4.659844813496076 3.7835585196574737
Sb 14.565085100114038 20.64276716430578 15.619338335415291
Sb 18.49982423952381 20.36055364916571 17.8371859466043
Sb 5.765142276723354 12.07027975129851 2.501273378865559
Sb 21.28747675934911 3.6850648447137044 5.665540105979147
Sb 0.7153620954023093 17.81846820290218 13.866482725880038
Sb 21.36822633774173 0.8875274215125444 13.687855806101398
Sb 3.936664481312369 18.694528954473345 12.025257144812906
Sb 17.90789098716884 0.06571711489996117 1.5860202606348452
Sb 14.162643833992153 15.14061996997804 20.56571703191643
Sb 16.60393601777524 12.517851694177832 22.389646548665905
Sb 16.40028074095687 21.170717536253573 13.704044254989473
Sb 22.54639872957356 19.9836138821532 16.073862212900632
Sb 22.54128406792946 1.0849305459599372 5.648182858348362
Sb 16.409496710747852 16.51785788829068 0.7911102918821389
Sb 15.179985644583084 20.601260602015685 0.24337807232815056
Sb 15.362012424425984 17.746735292418407 21.265769895393397
Sb 2.1308606550637137 20.824388174873402 14.819555865124455
Sb 15.798696038364238 20.180190698994856 18.053201208645984
Sb 2.5887893817014604 4.614457595256858 5.613595430824256
Sb 18.354386548374315 14.73786058057145 22.013118496628753
Sb 13.832061838953441 18.13773296788412 0.7740118228623224
Sb 2.441382251792846 0.49522655086536027 16.38035322675702
Sb 16.69383757734272 13.903696980474052 19.85400732790488
Sb 14.49084149817833 14.353950697397972 0.44286754253741617
Sb 17.141158903340003 20.327227880277576 2.138692540467102
Sb 21.602343155620236 1.858846888832134 16.347336019739004
Sb 18.639956001859918 21.336141142436183 15.277794091530971
Sb 21.06666672201583 20.906308612011383 13.799824469844463
Sb 1.3629877944624118 19.951858762695373 12.077308449836215
