31
Energy = -121.27857826 eV
Sb 12.016440217593972 16.4224685065482 14.296704793032216
Sb 12.180499372873484 17.416151513577372 11.53732983560966
Sb 14.800423811936712 15.786521176644813 14.791181275144677
Sb 9.8114694532302 12.746547095442654 16.513896368106845
Sb 7.829183417556222 10.930158112112412 15.318141925678766
Sb 13.50225570534588 13.684675304178912 16.36157451716226
Sb 11.547398314124015 13.500008218248475 14.282496371290451
Sb 6.319164528092011 10.012515912699865 11.479017612178462
Sb 7.671424185835724 12.209379912159529 12.757534253909471
Sb 14.809959697582991 16.71704772000253 10.638910203314603
Sb 12.533633735590088 15.980862538665937 9.026398665829419
Sb 14.402634646333185 14.372684320499888 12.323600721515477
Sb 9.048256908780289 8.328361566177609 14.833703896159074
Sb 11.492303471301186 10.408446131484224 16.951092159611047
Sb 7.9000397897146835 7.758835493901608 12.27878317877813
Sb 10.222807759187782 11.977324324004355 11.45831319059269
Sb 12.973369642740128 13.148367377131102 9.473961366550093
Sb 11.367276088914798 9.914877291422563 14.122851213794092
Sb 8.810863250550275 12.495704187094779 8.95111658110717
Sb 14.348027292181795 10.915488404089935 16.487239228112617
Sb 16.469848849698263 12.328555361175884 12.125949144790239
Sb 7.966216005793899 9.748944068819863 9.097115134570757
Sb 11.257291755536844 11.940154966739993 7.4935301450435805
Sb 13.954544604502516 10.947522017752673 11.908664140273363
Sb 15.178439264910491 13.21167707734439 7.619492226982221
Sb 10.249945490830612 9.124554023379412 10.8100726230725
Sb 17.35121887782467 12.578505287047133 9.388010955769733
Sb 14.17399438581202 9.125516621768792 14.188948166686563
Sb 11.876115051815338 9.216519242449817 8.318937637412127
Sb 14.371770025891793 9.060229576522838 9.761340998067162
Sb 16.060026818774052 10.488239071768357 7.90093389071079
