32
Energy = -125.51564169 eV
Sb 14.215338035102628 10.720012118378573 16.213041252381192
Sb 12.357719640015253 11.012691014220245 18.452073235672852
Sb 9.427556648746034 9.446585437433503 15.451789117877839
Sb 9.843418864604933 11.685223578308703 17.23225079694124
Sb 15.163766031557087 10.377626130764504 12.611909037492765
Sb 13.14305022486547 8.503147197588367 12.275808467617209
Sb 15.365983182460175 13.195167105702135 17.234383067773486
Sb 7.236315253872666 10.550834512667016 13.907874448956381
Sb 12.900941915892608 12.346944883989147 14.190223221454723
Sb 8.439251705910849 8.90527706530619 11.81553448127768
Sb 10.69733162467776 10.339488291794398 12.960712968771887
Sb 12.74609354025831 13.890467875553592 18.256511401721223
Sb 11.110855913656195 13.896048588267197 15.831683312017509
Sb 15.35011810449468 13.848761606885859 14.404939355957984
Sb 16.498126254763704 9.3811338826184 10.213625980956365
Sb 14.050570221087131 7.982396449303121 9.556518359354156
Sb 12.599135817066896 9.737554373619462 7.810940372182377
Sb 16.564180268429887 11.914415350577448 8.853495860799072
Sb 11.296857161069754 11.340590310082227 9.79693781604918
Sb 8.521704356226758 10.5673354465152 9.447634692794884
Sb 8.923824156065974 12.833577659186263 13.22699550704202
Sb 11.557048593475665 14.433391515318009 11.716083132463554
Sb 14.546323797928027 13.137170641474826 10.582076617891726
Sb 14.73464344516299 16.574540474812476 13.768239931564116
Sb 14.514322633324259 11.705044289028644 6.8560560520277996
Sb 7.632972193227853 13.037404563692778 10.69768831231587
Sb 15.524012997285958 15.895268747385645 11.059665069292269
Sb 11.930914221454234 16.911287188038152 13.113218428673568
Sb 10.762807826180014 13.357919747811005 7.839572017636067
Sb 13.515808817686114 14.194434690086636 8.044757988984939
Sb 9.497189821347728 15.092228640587221 9.77889521023808
Sb 12.868091670422817 16.722305561323818 10.33513942214039
