37
Energy = -143.26509773 eV
Sb 16.937010466983907 13.933955407885524 11.585433109257185
Sb 8.699303416157406 11.0748326767442 14.57259715212662
Sb 11.524967559640094 8.820781016771859 9.30361010387273
Sb 9.257402373730306 13.93361249737557 9.05892915859953
Sb 12.705847784837987 6.564924001484331 10.739012123200887
Sb 15.077242264811497 11.690249526125013 11.639904019447165
Sb 12.563008923662194 13.282188116166907 10.9705483364611
Sb 11.087688142066142 7.01588421667704 7.0744355776357795
Sb 9.592975213198962 8.404737121313248 13.58516393690396
Sb 13.41092246976517 14.940873792584341 8.784326028036489
Sb 11.844832765595728 11.862774236554571 14.561915529767791
Sb 9.67266870920753 14.721281670368347 13.267079539054693
Sb 10.571342412231326 9.055175162795857 5.17625203156056
Sb 6.415727310043498 12.406728313954298 11.766404419867552
Sb 15.491525376607537 9.140648551092776 10.475524445582137
Sb 8.383658819419969 5.264198672412476 10.269180427391122
Sb 11.747146550507257 9.898831077332211 12.414177638836387
Sb 12.15468381151282 10.210764137288113 16.891668422617194
Sb 11.398158852907127 12.52640556512981 6.9224500402994416
Sb 8.75353843010776 9.640854985930758 9.337381101549285
Sb 6.96187106220135 13.990406857415316 14.128052326144683
Sb 15.19702407159829 16.14282562496426 10.80758373184983
Sb 15.742358103358566 14.28539835344996 14.199413598958424
Sb 14.928404438671393 11.517788356888287 14.470746260367635
Sb 9.279224734314457 10.073909936824906 17.251308200996185
Sb 9.312890213286192 12.367327651817355 11.54643145022882
Sb 10.33946401847597 5.704749201753693 12.125729355502472
Sb 13.3974253723645 10.791774663001942 8.362440936084388
Sb 8.9929240341222 10.942869987185714 6.774681596854008
Sb 14.041619198543744 8.14187314261788 12.743391075324764
Sb 7.469700893841905 16.335480479538568 12.393835171337576
Sb 8.348068816366693 7.03719391201317 8.038446404257211
Sb 6.643503815008339 14.810274746545524 10.111050274769667
Sb 13.328247204734398 15.336038446976582 12.882723264288181
Sb 11.034915826268062 15.927689897857581 10.162764064268849
Sb 10.751973359279802 7.820477921236087 16.179678424892856
Sb 13.047794761325955 10.482314736057099 5.517051199649798
