32
Energy = -124.07944102 eV
Sb 19.500420740809144 18.952314383311336 12.41330527753729
Sb 14.135733290145005 9.10603650815455 15.73915459554306
Sb 19.22444906467374 16.698015871147472 10.680126616345921
Sb 11.800751988591838 15.51004618280436 14.027204045542222
Sb 14.287421278880693 10.740041646688132 13.391317583430162
Sb 17.327728020473433 21.218409348071148 17.64755231215687
Sb 17.249901527239306 20.701367641965852 12.099473827611941
Sb 17.51639900873107 13.353438016663873 12.667219306966048
Sb 15.729036293803132 18.9664341069732 18.30678540068696
Sb 9.59434263520759 10.317322239573151 17.160350548938464
Sb 17.02476269106394 12.035426636971442 16.570400450936898
Sb 8.070106953662712 9.399090178868201 14.90335259107427
Sb 14.999818378329367 10.605459660220681 18.03714540336042
Sb 10.350343286078871 9.294090614569459 13.176401233284356
Sb 11.402958602804079 12.36523992668124 16.29546664920834
Sb 16.596081608127978 15.681585660252674 11.299569620639735
Sb 10.445197595371818 7.9798679981309535 15.731346294116085
Sb 19.966716946467862 17.225872930037664 14.709886957164555
Sb 11.369634508908478 18.13012430671944 15.251317282649188
Sb 11.605805584557444 11.850323215504798 13.496094694831037
Sb 16.561805127110524 18.44980511153834 15.571706241709633
Sb 19.412397909031135 14.417203319246665 14.529160086912203
Sb 13.116309281313358 16.249759739669148 16.480948278279893
Sb 16.036238845545427 21.145930090368445 14.70371011453666
Sb 9.505272106727098 14.378532440926682 15.468239550021174
Sb 10.34314783985762 16.423147283203143 17.35253689989178
Sb 14.640521050727964 19.53609946532752 12.531758480879038
Sb 16.927136607235504 9.158473217817999 16.486387357294376
Sb 21.15921837911435 15.576997355555143 12.587515639422842
Sb 18.550875305400012 18.703975886949546 17.78637794118046
Sb 15.316463258030863 13.145736319220296 14.552308726419355
Sb 15.04732192616775 16.90449621935303 13.41637416916221
