31
Energy = -120.00161265 eV
Sb 17.459565596361852 12.812180511066877 12.264051426027315
Sb 16.869899524084314 15.538966005328481 8.907889483992225
Sb 16.299181125567376 18.175149627371557 7.880907702237303
Sb 19.30588807227617 14.111651613933411 14.04595487382682
Sb 14.512952188942231 16.97582457531084 9.736037575783731
Sb 18.20482290214822 12.149166759637142 15.899286884703356
Sb 18.480382784299188 16.716552224734077 11.04520367084174
Sb 16.946340298131293 15.49457574583619 13.175071076957533
Sb 15.649772719064355 12.788727149602952 14.720556992763953
Sb 16.53204523876805 18.82017055399183 10.723141267725797
Sb 14.717347473802745 10.845947769524471 16.69486701556358
Sb 18.839042415805316 19.22054906957001 18.352491895929365
Sb 17.873699913080692 12.723649485511531 18.748408928062897
Sb 17.086640932899915 21.266798806922854 17.352258190102482
Sb 18.15546547928226 19.116016099648764 13.937351844024825
Sb 19.609176208245046 17.766181171303415 16.032438894565626
Sb 17.23208977887949 16.99850612547799 17.465139746795565
Sb 12.127432924240725 13.857178033725184 14.939983090743949
Sb 15.229172632166055 13.44116988852508 17.83692038447793
Sb 18.730075619994725 15.408889290860063 19.313360498887995
Sb 13.309021626308079 16.19492258973511 16.12519205749258
Sb 17.93324666461024 21.891206741924073 14.683542226436899
Sb 11.942881348071891 11.79382180194638 16.919947342346635
Sb 12.737694886282505 13.144363431846543 19.321012058391233
Sb 15.722789164799782 20.101337628037975 15.112067989942181
Sb 11.998511138842975 15.846124195678618 18.678479980204326
Sb 10.457434781895907 15.817214216154992 16.247042081013376
Sb 16.205971846864998 15.283813711054734 21.066615991890426
Sb 16.592887477501275 17.635179860327245 22.68309667467288
Sb 14.80866403278653 17.715985375666094 20.435949990647668
Sb 13.997473556959983 16.474839318496908 22.88468633905508
