33
Energy = -127.90868691 eV
Sb 15.594901494732492 11.437078272422786 19.530508833106598
Sb 13.999786631900145 13.499547662062625 18.325050713654
Sb 15.749776253891032 9.121748662513081 17.89763739540331
Sb 17.919323116920342 11.102707308006657 17.89155924491091
Sb 16.48333600920539 14.736787472013289 17.4804334191339
Sb 15.927877142533285 17.541744793712745 18.045887951240335
Sb 9.448344198885668 10.541325158785982 14.502627765198032
Sb 13.173868432737633 12.3032742539498 15.838993940577708
Sb 14.841332864362395 10.040247249868374 15.29812231347612
Sb 10.867484015081255 10.964634826232487 16.951722556088605
Sb 17.302759910458462 11.517282843547504 15.06085904926052
Sb 16.06126413838594 14.13271969219691 14.701817734044884
Sb 16.218807164879077 19.29569740501234 15.787424905219703
Sb 18.318654246353184 15.788566560947313 13.95262728327058
Sb 12.971507047627895 16.38156272607777 15.112599763125425
Sb 13.585612562784776 18.648710643287895 16.815848127664392
Sb 10.6999968668234 15.610116846962008 16.738748346696497
Sb 9.030387748487247 12.984520631673911 15.979215293247725
Sb 16.139958922724954 17.57163236589748 13.461078189609408
Sb 10.269892018898247 17.168106197178847 14.43873246161258
Sb 15.875026500957416 12.109322600089984 11.059474562160483
Sb 9.7897213936344 14.393940523768114 13.415864019332123
Sb 18.21136913379892 14.941747564495953 11.19126199009172
Sb 11.380460236429341 11.254099176415224 12.13689026551514
Sb 12.589374032979965 13.788431282172812 12.91491517680685
Sb 17.596961242302758 19.344093218693303 11.759714078062633
Sb 13.517036687411235 10.74238341912353 10.07778049873292
Sb 15.305698697057801 14.964959948281571 10.930708488136851
Sb 15.758707600911945 13.510852319272406 8.514860598447822
Sb 18.691730580623574 17.568466123386045 10.086152214348019
Sb 9.571311928448488 13.017271556301639 10.717205273958143
Sb 11.787896447486899 14.816145945474771 10.231446501719924
Sb 12.88365449278602 12.91165747588593 8.341407983715778
