33
Energy = -129.81872041 eV
Sb 15.969771535550043 14.638217315801985 11.092652762650179
Sb 16.31959844284064 11.752692714122723 11.042247594659193
Sb 13.93374291491224 14.668793005330532 8.984913868209759
Sb 14.510629276046833 12.229070249780642 7.542209716170662
Sb 16.874871829320345 11.19727998564377 13.744697170277016
Sb 14.610330818158701 14.248594113405938 13.605072380275645
Sb 11.988184545986869 12.538813470178859 6.150124438536206
Sb 15.132514022130561 8.233663738053046 10.508441042904558
Sb 13.359851970599792 10.257381935697763 9.356053916985239
Sb 12.592944487857201 16.340684545285228 13.64935693905605
Sb 15.88867558777977 8.518632140279832 13.303775443059358
Sb 11.6014831239648 13.715169535990789 10.415419159926666
Sb 12.556451258014834 8.261356132244229 7.457248725531837
Sb 13.65472682901099 9.862865632616595 14.501996060191992
Sb 10.559470962720459 9.984894814556013 6.319234701822367
Sb 13.595012365540885 11.824112727570647 12.334618676514566
Sb 10.843415888191473 16.365989594381727 11.323952423794193
Sb 12.905246600424075 6.601076323713761 11.415174769398138
Sb 11.26558620843467 14.666520471434998 15.538210158527528
Sb 10.852297396960555 12.294297292800257 14.005715096670269
Sb 10.80266444983264 7.419894356692132 9.588774273472463
Sb 11.712610506503575 7.734804061932821 13.835493045508876
Sb 10.520781384951366 10.067169310506154 10.81775078032056
Sb 9.96438493711108 13.508524741914245 8.026911124068176
Sb 8.871635389983874 10.85311678293935 8.549428126451263
Sb 9.481234241143309 11.311271516375665 16.295489674275572
Sb 8.284210882993944 15.57688959022397 12.439878156271929
Sb 8.630972546500812 15.7314344095253 15.298262400239068
Sb 9.094212581850647 8.295791047618273 12.7023071787284
Sb 8.729397289439579 12.783847596737857 12.082470926538896
Sb 7.633049963982231 9.678642822297011 14.792718576422363
Sb 7.314603215456698 13.264045767025392 16.142227165972695
Sb 6.4503326702623545 12.079358381780015 13.642069651027002
