30
Energy = -115.97024755 eV
Sb 12.329437577506658 11.611402568201397 7.543222441822753
Sb 9.810113319353833 12.870664493189636 8.20074483255999
Sb 8.488001140459117 10.899941680522463 11.45699912757354
Sb 13.890818940838022 9.478497046880248 16.499636633434466
Sb 10.76064674185795 9.45615559186928 10.51837033326318
Sb 7.3131491873084835 17.65176428075927 12.747100025667503
Sb 11.479511915206675 15.218835255615202 7.966528645049642
Sb 9.399322387375149 16.082575315006274 13.917378009500231
Sb 9.536619997533474 16.813796773005617 11.13677794855034
Sb 15.735788807821464 14.940352411389036 14.738162553796299
Sb 14.651517366239919 7.201007635136898 10.507493177225058
Sb 15.857618832853634 14.97901860332521 11.849116644472536
Sb 14.27692007701427 12.372532432159606 15.15722366672921
Sb 11.034918410204922 11.251108809125123 12.823947031768327
Sb 8.898351656999795 8.155631378645591 12.282391404639244
Sb 13.948553897714818 13.792922928077576 8.570777270431153
Sb 7.615291029301701 14.897597329143604 12.023886285174827
Sb 11.611771695964629 10.834018744281169 17.303989271177798
Sb 10.258734198358399 9.164456545834268 14.67463709428402
Sb 11.056805860612258 13.485552815806477 5.696505946339636
Sb 13.117340170975679 16.078775891442426 14.67261589000503
Sb 13.17159119388432 16.123364552831127 11.766797853839124
Sb 13.541317291573346 13.31306784564785 11.409867660809978
Sb 17.059489415658813 8.795459905756418 10.313168159858503
Sb 15.75632967532899 10.278091298037273 12.470954003319843
Sb 12.564863296283812 7.463802474370802 14.935838824410963
Sb 13.331372545354894 13.15345827581574 17.761812893159487
Sb 14.981414507502047 7.63378078201664 13.352922300353761
Sb 11.643383274344865 13.575693102634741 15.474610106047118
Sb 14.50736318022439 10.023662679160639 9.873084894187679
