31
Energy = -120.38522536 eV
Sb 8.285787072742387 10.721270880236517 15.990744063154409
Sb 7.668822403101832 12.136262954976594 13.594266088343787
Sb 10.356749511622741 11.209896081115952 14.05617233363472
Sb 8.134950662060794 13.605836067870834 16.040620198101088
Sb 11.989764783609614 12.899180084689995 17.960238428583892
Sb 11.033696479993498 16.624832906429106 16.846655035035205
Sb 10.964562170932302 13.931732972624095 15.483220066097907
Sb 13.80453454820364 11.181701726528447 16.498075063727935
Sb 13.045372107032078 15.537438059385181 18.608609770243454
Sb 17.33461156165882 14.180205569484164 16.79799537455732
Sb 16.23426018405063 11.764588036340099 17.851049274850894
Sb 12.37240920908351 18.050581017648856 14.736377968273585
Sb 13.800759729569648 11.84365607064053 8.49268589805454
Sb 15.751853049880133 10.873883499006606 10.380717121420396
Sb 15.295877076591553 13.731640420371155 10.114131652484103
Sb 11.83840095093366 16.041734282693923 12.65393626598666
Sb 15.51672676957617 16.383036516316604 17.36640597582657
Sb 14.683018960724686 16.339306418679545 14.643545887024494
Sb 14.342774743286594 10.100539890885436 12.785990265181981
Sb 13.988258471785455 12.662063283063073 14.026348004393508
Sb 16.720942163573724 13.701616542826052 14.01986405272445
Sb 17.945085990211247 10.080328141250579 16.23183283320277
Sb 12.561892815453538 13.118523647899305 10.784819019997668
Sb 9.888662457159848 16.93940946939028 10.707820991118066
Sb 12.696172032257977 17.55753627518795 10.377990205077271
Sb 16.965067307653687 9.222625982598727 13.653708436132561
Sb 16.666309782394986 18.134835120273088 13.481546650772088
Sb 18.652059899403692 11.543576160754823 13.840558529363937
Sb 18.199672014844754 15.947305557374953 12.423113001447124
Sb 11.556267423331594 15.280183867275097 9.04470275784264
Sb 16.343794110828448 17.17596462025585 10.823446702370639
