39
Energy = -150.78396128 eV
Sb 18.109668893771136 15.245079065762942 10.085543897345566
Sb 13.877357294197825 14.069151140698082 8.291666867266562
Sb 16.594459942114902 17.58921464353487 9.31248339154457
Sb 13.920026732734755 16.91987952661573 8.567183404430795
Sb 16.50691989376679 13.127976539572295 9.046853280274243
Sb 16.286161023030026 19.245809174346327 11.664512116477145
Sb 12.04334628653636 17.29836841240553 10.698039038489373
Sb 16.55120475331147 13.632265539411005 11.9401354661691
Sb 13.235603020882937 12.874656465181323 10.879326824457152
Sb 13.52679254222846 18.978169093955273 12.515173582856345
Sb 15.746484575100387 9.814016921043839 11.6533688732132
Sb 12.375626595546256 15.073567818822385 12.527495580564873
Sb 15.476779058402556 16.937790634507603 13.15015851438742
Sb 11.265662776051798 11.266789272133275 13.780296864289006
Sb 18.561334515457443 9.908524123667334 14.298559277634565
Sb 10.44169254878158 13.094409132351107 11.706729666820557
Sb 14.266602346851654 11.134005349113572 13.845027231836198
Sb 18.255965946772132 11.28621281514196 11.732873592203955
Sb 16.397849095579204 7.739154010420856 13.52498938412328
Sb 11.185141677780853 12.999582107939561 16.055936247325135
Sb 11.85375211334871 19.746582222090446 15.638275088815659
Sb 11.096840262527069 16.9618264554515 15.303984008524811
Sb 15.795611102470964 17.321827236931462 15.975793732664078
Sb 18.207396039930742 13.453365681015653 15.768026849631214
Sb 19.520571969826598 11.174268249631863 16.823826179657036
Sb 14.074330037836583 8.474982109771702 14.845795592036723
Sb 14.654715015422552 19.882351379213908 16.354230745488184
Sb 13.177740060678962 11.491025384058053 17.323366617868402
Sb 13.510775116289912 15.324195216762618 15.716809849957789
Sb 16.654708245129097 11.025040482004256 16.127229258820257
Sb 11.22331777910101 19.620239403296985 18.53557358484236
Sb 16.121772436453785 14.261633678045973 17.646408396563434
Sb 14.05375169109364 19.681099709821662 19.189052032128107
Sb 10.345539622989275 16.86382162237325 18.14049453237935
Sb 12.835160357125728 15.522306446058082 18.557247212587896
Sb 15.906747069338259 12.940250780566178 20.18461999090506
Sb 12.98677925289321 12.895402905002408 19.793647646112596
Sb 14.247624490144087 17.085398707839655 20.442099015771575
Sb 16.78817804873366 15.719750773671567 20.03715679376897
