32
Energy = -124.90071815 eV
Sb 14.521858719746364 11.91275651846597 20.282433864217648
Sb 17.924981940651758 15.063945549839907 19.57972640324313
Sb 15.28111164886208 14.255369644222359 18.746398467282372
Sb 15.191855995472173 10.288518151899787 18.01036342961511
Sb 12.442551352482237 11.009160610427038 18.478466076701444
Sb 18.637663689382677 12.790793049004513 16.513635295154497
Sb 18.71013014055639 15.677573799383788 16.88568965759327
Sb 15.606379785543538 16.668788389909317 20.251781232996372
Sb 15.785279593923459 12.371336531009252 16.03980252058816
Sb 18.928631794664547 12.74513462711521 13.61425183086771
Sb 11.03825686394748 13.216646036071891 17.158359985160597
Sb 16.807282108652473 10.761894319996719 13.82379026353792
Sb 12.779334813028676 15.494565964847762 16.971168207745485
Sb 16.182035216322607 15.610018615854628 15.476071293404303
Sb 10.967590889658458 13.667049065370367 14.279852160127867
Sb 18.005393735638872 15.463287095172252 13.178991093682317
Sb 14.883869320816702 12.474555252786104 12.535382915357706
Sb 14.77462743674125 18.731961841539697 18.359403866765813
Sb 12.14617938560537 17.637210649484626 18.769738474270188
Sb 15.458804491115938 18.427389187878557 15.562221651424192
Sb 12.168332494537898 11.454244932441773 12.873704602638748
Sb 13.28887351844511 15.394850148288704 13.473999527936243
Sb 14.571881638274355 11.641368397033057 9.794808957124491
Sb 15.784382257436013 15.40313176168344 11.31851022965077
Sb 10.914072520533196 17.539364513888103 16.155029840024955
Sb 16.429529478964184 13.75334978038729 9.054666785903661
Sb 12.90036056813578 18.244258963329866 14.189951760872571
Sb 11.900106361402917 12.68596384752142 10.227705639824105
Sb 11.788980319368884 15.484619218430073 10.991436703987773
Sb 15.892302127905667 17.680175420283778 9.455896360413476
Sb 15.131481586493098 15.766028246613851 7.432181121151982
Sb 13.113156851058099 17.11260499266688 8.988316284288143
