33
Energy = -127.98940249 eV
Sb 16.539493233440112 18.16975284356676 12.447586069011164
Sb 18.937309587889004 16.58760385224242 12.07721860368757
Sb 17.856801946746526 18.451665302987987 19.65494723957548
Sb 19.853256195131905 15.777326105169529 14.673947525950219
Sb 15.350607624133838 17.32558301290329 20.68224365237561
Sb 18.750029091405548 15.819708961942581 18.840991371180323
Sb 15.773268393364265 17.978155588782975 9.62840825162397
Sb 16.946576940449678 15.350336028654366 9.065928484395709
Sb 15.424842884008745 18.822682366106076 18.2332131762064
Sb 18.89937095637137 13.805778274049072 12.755049125834125
Sb 14.188885534146404 16.709761338531116 11.656315396103182
Sb 17.52845915737276 15.30322565930544 16.32576959264845
Sb 15.497997318902316 17.241344264269465 15.846701977450099
Sb 16.524567865005668 14.71173662359467 20.33345303109973
Sb 12.792810005002861 19.291897921003777 11.573634143331839
Sb 16.17875328630546 13.475552553006954 13.775453791586665
Sb 14.810879400841433 13.803566717467787 10.231231831698997
Sb 17.580858189407657 11.958043847750412 15.790171075988477
Sb 11.643333732398323 19.5328374526355 14.216461894072992
Sb 14.737932052856605 14.350210425627393 7.578635923320337
Sb 10.106277879439707 18.390022690434304 12.094957915742857
Sb 11.496728187743557 16.674789899379892 13.957147986515787
Sb 13.411904614318887 15.267199432070214 16.79884405046095
Sb 14.363536671948264 13.490740280756851 18.88747152501491
Sb 15.510139133611114 11.181961440939643 17.617026248322947
Sb 16.06799599580479 11.056527274762825 12.156935749831671
Sb 17.29058781278995 9.463488527133045 14.262250511164698
Sb 12.850478998689386 13.418508828484454 14.651498921044062
Sb 10.621506457900114 15.190969745328836 18.015525940849873
Sb 9.237022261293529 15.982629535138345 15.650626253204495
Sb 13.20597551739311 10.861302280926871 15.969306935867158
Sb 14.449924243933063 9.365371495046363 13.841453060533485
Sb 10.149003340874579 13.272274905922027 15.958294942954204
