35
Energy = -137.30117745 eV
Sb 15.917853975974287 15.140950140748021 8.368311033972445
Sb 14.26166985444974 17.54387259736947 7.982582586136186
Sb 15.361334512269549 15.479998047974082 11.185854368558799
Sb 17.562649957109176 11.543118426622584 13.322734484465816
Sb 13.385212065773379 17.530098561727947 10.740257059396393
Sb 16.49026150927007 12.080207938282243 10.654334484277875
Sb 15.527337512164312 13.269583890794916 14.450592806718028
Sb 13.395462097651052 15.001539742063507 6.993804330027693
Sb 16.267231458064117 8.937524365608317 13.37711667604567
Sb 10.906476396673087 13.065539110274013 13.496363814758032
Sb 14.027881348661849 13.00390523887868 11.92700651569199
Sb 14.229189553631016 11.232472647531122 15.97654041734045
Sb 16.34166591607 9.19022601438045 10.476142055879158
Sb 11.956393304598834 13.720439189972408 9.13733568136969
Sb 10.924274496205411 16.23705916724592 10.080867544345699
Sb 13.492629115396438 9.804740343928659 13.489814944231854
Sb 11.93015729484393 12.930634158757139 16.21642927564165
Sb 11.660405109877203 10.235250291177286 10.31326526356507
Sb 9.199383064339376 13.615119328354742 8.143024152153588
Sb 10.714058172509441 9.23156333008926 7.767749048787635
Sb 10.177647197147103 15.856081584397062 12.861185547389272
Sb 13.649318560162172 8.200412363556408 10.70564518905813
Sb 10.023751982108948 10.902196189232571 17.153515151123596
Sb 8.406390246871736 13.577764602436424 14.875655018160042
Sb 8.879194796786264 12.517436815650724 10.802058733549035
Sb 12.72047857162542 7.399810678731782 14.87784441010583
Sb 10.78031077611124 8.12557463883313 16.8852022551497
Sb 9.440971365690892 9.85805888074776 13.163407342388323
Sb 8.410356274179646 10.899457439243026 7.351657496689877
Sb 7.593864252888397 14.648224868926041 12.297300503475313
Sb 10.151346927884294 7.725742701418688 10.142548976216275
Sb 7.782635922955838 10.789310413701376 15.331610174510853
Sb 9.891247822166665 7.2224608452690395 14.296819428794679
Sb 6.798172774622866 10.831194329434654 9.756964003839498
Sb 7.62113650677475 8.530781810149383 11.276809919694694
