31
Energy = -120.85591746 eV
Sb 13.418888143580194 12.56283516991454 6.964571899580594
Sb 10.587966175722666 12.080150353201105 6.389233793096365
Sb 12.711392827405124 14.549918984357202 8.94651453386598
Sb 10.0337321789323 14.508648875834034 7.927170508929635
Sb 16.74821843098439 12.306067758440063 10.159627143568207
Sb 9.69135660074325 9.944902428217919 8.149528462484698
Sb 15.911417691794083 9.592670634275638 9.668402883588437
Sb 12.129868841363153 8.423229703642997 8.647136772364172
Sb 13.387700247171233 10.931061682863634 9.321568268526413
Sb 18.585534525030827 12.454598680605718 12.339576925774608
Sb 8.045710647195321 13.30244336544658 9.665989900881035
Sb 14.534097744542933 13.214445047037666 11.769314811077285
Sb 9.919704671583995 11.364143410564338 10.63289864181495
Sb 16.69416460279718 14.271562208740843 13.574252740456005
Sb 14.778050334402424 8.644563706300465 12.165525229814214
Sb 17.071460825613247 11.631768610465572 14.633548041138466
Sb 11.933948122402052 8.940614270518319 11.528795650301594
Sb 7.577193166741871 10.085794495641762 11.783905413084721
Sb 13.437110980660385 14.157796939900539 15.70473362610668
Sb 12.604322161600042 15.748873398896047 13.468959682684442
Sb 14.401141277005987 11.064233044557866 13.694369794399066
Sb 7.666833309584851 14.342263972956772 12.354370606831287
Sb 12.087173205226623 16.69013140326055 16.185472303260507
Sb 10.673603959502259 11.489128733075436 14.031156514373462
Sb 7.80718414272631 11.935108011464651 13.981362189907088
Sb 8.23722835553695 7.883625206407119 13.558956938307926
Sb 10.955061780227762 6.922118342604662 13.33007605303259
Sb 9.719496575289178 16.053538611929667 13.47057914845742
Sb 11.028424707744241 12.838961047968256 16.542158619703837
Sb 9.505229669838469 15.293070930095693 16.205869597691155
Sb 10.24861568907538 8.903562562840225 15.336204896921155
