35
Energy = -136.9763303 eV
Sb 17.50920958629517 10.969990496760042 16.143324636415397
Sb 14.66632714522491 12.318490341026806 18.839063696381142
Sb 15.926072709720763 13.332471293124751 16.495899002085512
Sb 17.687269220792558 10.78558157147863 13.296804795603567
Sb 16.1126469676719 8.575049480926086 16.96378273578281
Sb 13.683451233808757 9.729370646992965 18.026388111027384
Sb 12.007430761675634 13.416912285072595 18.604283696178182
Sb 12.303954969794795 16.185070768287932 17.830065389105897
Sb 15.916894984689069 12.921417980358356 12.349832545016467
Sb 13.988509984554145 16.320375750940578 15.473327448543175
Sb 15.901519983220755 8.681801243645074 12.447286165392821
Sb 13.849483070504904 13.538018068489396 14.459546541269521
Sb 14.4376453811106 7.730603363984532 14.754641619597997
Sb 10.979547448873081 13.134148971252984 15.880102484682586
Sb 13.122364168321143 10.283871945329818 15.256296851453419
Sb 12.177310840478725 17.76578009435564 13.752916429367618
Sb 9.650818055295547 15.559404007061332 16.949719140989334
Sb 10.283502881525699 10.251211998880418 15.936807373094267
Sb 13.98447247635149 10.791772073798699 11.850581698825186
Sb 15.413896668031782 12.801526530658867 8.578996612184303
Sb 13.765968366754718 14.615285166859811 10.020027426119416
Sb 9.514396311208648 16.908162543019493 14.43719950632224
Sb 11.237592757255642 15.197353394011904 12.80420661217989
Sb 13.791137132214251 10.463110405522755 8.974538416406835
Sb 10.707667182343767 11.952110238122277 11.831954034997475
Sb 8.853442562882806 10.346040759989075 13.415053656285393
Sb 16.125611267692967 16.110305732136585 6.196833368747119
Sb 14.413107425508219 16.921504040192254 8.382808374840916
Sb 14.821436441218262 13.568841390316068 5.864652247932913
Sb 11.000954296472448 11.31050796773359 9.00765602273348
Sb 8.180951894671434 13.100264879228579 13.906199552002713
Sb 11.368408059793667 14.144503929798015 8.50296107094972
Sb 9.669611582260046 15.629007040564622 10.392079252610268
Sb 13.271831596248752 15.991073528317624 5.90457021990798
Sb 8.227754933377774 13.201260419607603 11.021793612813365
