34
Energy = -133.23960465 eV
Sb 6.388881141033922 9.12248072408026 11.868932514955553
Sb 8.406806954303155 8.390034707186715 13.819306581632805
Sb 12.341001956095246 6.801292520154959 12.923446034919738
Sb 7.674008963646981 10.955330310009705 14.900445699091732
Sb 7.594328918682018 8.738936683107342 9.287667006813804
Sb 6.455541877619806 12.038830261376171 11.605301024271196
Sb 11.239850614878701 9.907619009045995 7.341696746539668
Sb 10.957432054031335 9.400075343665364 12.826728910666189
Sb 13.681343723648789 6.634450256398779 10.362453496599228
Sb 9.120497269690908 12.298575830003035 12.790655442733714
Sb 7.1061859549737765 11.571218651825603 8.790244367504775
Sb 15.050892956767369 7.732060926793493 12.650940226637283
Sb 9.693109644333504 10.662639734260653 9.65971565602906
Sb 11.887510872501254 9.770798431657699 15.559979350152226
Sb 9.675902643828746 11.047866208428358 16.950386676734897
Sb 12.968796535064076 12.258756841066335 7.605238639116864
Sb 13.003042698072052 9.348911896948854 9.628457717695206
Sb 14.427394488381193 10.613724381818166 12.46995570678285
Sb 12.529808638433959 12.753999926812183 10.421802419827229
Sb 15.316917465877504 10.352139755729961 8.23161251620597
Sb 9.179323415934618 14.7909606488295 14.287129177420931
Sb 16.401482830554055 11.456298402046395 10.543334131345519
Sb 12.536577093553616 12.459486687392701 14.701351825635628
Sb 12.459427538350708 15.004727784264125 6.4152339801920215
Sb 10.364582951842348 14.60815055773149 10.345015629541708
Sb 10.691740684397216 13.745815720545604 16.5327397077454
Sb 16.49025393593268 11.414426344709433 14.381238280889015
Sb 14.878520344136492 14.398641099654878 10.284800071732361
Sb 11.129339025717428 16.591716876493695 8.397586185274218
Sb 14.84817920080895 12.694156566874433 16.37905708578897
Sb 11.242825575973418 16.059067780368945 12.68909573009036
Sb 13.99094387081079 16.436734113955044 8.276502437994766
Sb 14.202032588623755 15.733788591946555 12.768960851814754
Sb 16.157645659419728 14.298416512738346 14.395118257544967
