32
Energy = -123.80977123 eV
Sb 9.595230892929033 18.087530963458 11.876852504293838
Sb 16.359377565784193 8.921913172984455 14.259617798814205
Sb 8.475228647422476 15.792960435465638 13.15759554913755
Sb 15.981995727831034 15.86364260749287 18.81405246882691
Sb 14.049583014070855 10.096540082310405 15.48899014434216
Sb 15.874690101040622 20.82611800940582 10.879258467603222
Sb 10.121437310132647 19.908611123579227 14.038770965801103
Sb 11.136936235220647 12.4661370897069 13.50038510948031
Sb 16.893456566415136 19.233676035477078 14.266748583397296
Sb 19.521830947487246 10.859208915389402 16.58719448341119
Sb 14.826956237996553 11.6710960103326 11.46729557247243
Sb 19.1854327419335 10.209243174935775 19.378502855098134
Sb 17.426080295169697 10.700221830217346 12.263559703380261
Sb 16.420198862164302 9.533136028885142 19.07511420063964
Sb 17.384905018830715 12.69958837817173 16.006686393496395
Sb 10.546847237799296 14.843433586773287 14.997621655649642
Sb 18.36019529721475 8.351772403776115 17.315967342244797
Sb 11.604519260133216 16.455879102741147 10.544163455439111
Sb 14.921498727738497 16.981803042449645 16.3341264786111
Sb 15.248801575091784 11.689841020011658 17.595650435082597
Sb 14.489751245879894 19.057940413672007 12.650464414012673
Sb 11.667651703045607 13.607859169874908 10.94168208830578
Sb 17.328999795802233 16.42295703726709 14.890415362589358
Sb 12.85964855456604 20.762852393468872 14.306475383377846
Sb 18.233029501289202 14.123430537870608 18.35701631249634
Sb 18.396187945271297 16.894230720541984 17.550086083529514
Sb 11.863954696703065 18.506596145676763 15.834343918087729
Sb 15.3632016572298 8.845373421061387 11.54424891629485
Sb 9.151586064796858 14.865908800677376 10.442675725696521
Sb 18.19358903189716 19.766899989152215 11.777183361223456
Sb 13.976436234449805 12.574718058073596 14.058352934529097
Sb 12.904503231407196 16.3256375297658 14.224038877874987
