31
Energy = -119.51718171 eV
Sb 14.566270107379676 12.235193643302225 10.558019236602828
Sb 15.507178226313773 14.748120186513361 9.487787160628146
Sb 18.18529675722346 15.292057484849098 10.527039169818421
Sb 13.775701551882184 16.695806555752494 10.668599401210438
Sb 11.67932835337499 12.971428455391937 10.937788324136886
Sb 16.561909323126862 12.091876445607001 12.762329209717771
Sb 19.214005698533498 13.022808946454411 12.084547717080142
Sb 11.587647140370434 15.456267632328759 12.335524852126387
Sb 15.188410057999372 18.249136249675832 12.582263360944209
Sb 17.64011695123301 16.787623914138756 12.880710254942535
Sb 15.754866650425495 14.704375151113577 13.720590672162313
Sb 10.823205450613077 11.142782729237856 13.032097271068437
Sb 13.6198472624089 11.402612118846372 13.737223972544792
Sb 9.321024313047447 15.150691233222025 14.454841947713708
Sb 12.901569579049639 14.137230674189663 14.742314220191764
Sb 19.12642540272657 13.107950468195218 15.008981924138254
Sb 13.052060645339015 17.555538586758242 14.903355146173336
Sb 15.919441972632166 20.044254242245746 15.616955897530621
Sb 10.631101395776566 16.673433076061418 16.46610862263518
Sb 13.133668589243953 20.415767015728218 15.674812722604944
Sb 17.49237803521891 15.309131970796999 15.947308581701414
Sb 13.957394018589833 13.327513397520622 17.485568391171903
Sb 14.770733254831017 9.759279924787462 15.873033204869007
Sb 10.403864193230634 12.738138361619153 15.430918145065334
Sb 12.238270930375545 15.474832599948305 18.570163813401646
Sb 17.54246200837086 10.62889501555264 15.586271137010067
Sb 14.520367593435356 10.65366103286695 18.5922584893603
Sb 14.537576636362282 19.752368164093212 18.103053847522272
Sb 16.51883917872967 14.175252824353867 18.436197224836945
Sb 14.511351515298879 16.93185325925767 17.363917119089837
Sb 17.32809123711293 11.374522669846211 18.439822992255806
