39
Energy = -151.66116771 eV
Sb 12.04442148934214 16.489080078650694 9.399634805526205
Sb 16.24888878647766 16.933124190259893 9.957690184802518
Sb 15.765427815453847 14.15763846860346 10.5472333573207
Sb 13.24439526399907 13.858834260939904 9.265547642916786
Sb 13.819869183244721 18.206787442002184 10.893331331041342
Sb 9.739956022305478 16.30377300715022 11.077540833548923
Sb 17.59307771417054 9.753263273377955 12.2012647437482
Sb 11.818182684275936 12.041736840990394 11.021463124118007
Sb 13.628325451229676 16.874408694870034 13.445837262004414
Sb 9.317541497325042 13.474486734069151 11.266620407291237
Sb 13.755639621963468 9.445194915130061 12.549541778990386
Sb 16.679901960797498 16.249084291782008 12.781323018010923
Sb 15.940855743000695 8.176461606559188 13.959515067912976
Sb 20.16551230414365 10.32795597455555 13.388502521257616
Sb 13.360779934062592 19.063688760765938 15.283813783903325
Sb 10.499047995425553 16.50515284843203 13.853948670136397
Sb 19.734835016308338 18.11433444417506 14.678048215453583
Sb 11.079517343028696 14.11624851254474 15.403662664644813
Sb 13.620936546607647 12.293894777996156 13.278503366555373
Sb 19.633837901089635 15.62071108674766 13.244955738822261
Sb 11.94365701271986 10.370786457989915 14.655214113681225
Sb 7.734921236243678 15.744591495319613 14.715954457070549
Sb 18.139675409160795 12.378648894957852 13.451705001114348
Sb 16.819243498165296 18.474763194986693 14.717153816748478
Sb 13.053422921707888 16.69352633364106 16.91458070532428
Sb 16.952947817555323 13.098799181510918 17.826333630549808
Sb 15.858975562394583 10.571821589453348 15.501040869985877
Sb 10.37977767064605 18.975362327486422 15.340946232024718
Sb 8.681749658028973 13.083911288593253 14.0749064136354
Sb 13.485133518758998 10.290750500470207 17.12938548827264
Sb 19.586412172332373 11.664689008987198 15.888727957424907
Sb 19.420679531358527 15.621900960978117 16.095915752146794
Sb 16.45933790621951 15.867424479855707 16.007401706946332
Sb 9.074377967434595 15.19168608288163 17.221542985171702
Sb 17.69402054641225 10.285585735791468 17.65251008641652
Sb 10.450326382052836 17.687934108442313 17.888415854073195
Sb 14.09094319043878 13.135197719445387 16.93389446900372
Sb 14.835705993923911 13.942752702212891 19.607595609638572
Sb 15.399496187370845 16.665762184571193 18.63055078994183
