30
Energy = -117.95916849 eV
Sb 13.915185556113588 21.956559951115874 12.183095190570054
Sb 11.307801191216404 20.985000131234994 11.313788465990926
Sb 15.201623502751366 20.213219959906706 10.27692280442581
Sb 12.622155277787321 19.27153001591243 9.39487403568316
Sb 12.422161868725512 20.13543423712001 13.827704059952273
Sb 16.0169849227066 18.349031089997442 12.260449353448331
Sb 20.710729223376273 15.501585221324914 10.191710043142683
Sb 12.01071185844719 17.006617195191527 10.993621868320824
Sb 19.612968379988175 13.276643429693841 11.675338742276868
Sb 19.698483176873467 16.951327216226126 12.478116161899587
Sb 13.513779372223238 17.523242027166198 13.345127660659996
Sb 17.60714844965062 14.978770348942195 12.964046892683633
Sb 16.456076696596995 16.075588516363286 10.560369226243226
Sb 13.800072142482895 14.981583851154223 10.021652037318749
Sb 21.733540836400156 14.887092984275407 12.770006944944912
Sb 12.648138009399158 13.482959987019738 12.210168791286915
Sb 12.854780968331387 10.940431208873074 10.836840589098776
Sb 14.80100246840843 12.574331421580911 13.904969915298798
Sb 10.596177719472623 11.626050836284797 14.64865249764279
Sb 11.647636193767328 9.48960846395492 13.031641037353968
Sb 12.893687587840802 12.704059148011785 16.046502515971113
Sb 14.479377785970101 9.840877294616737 12.984456999947264
Sb 9.817749143201201 9.479883183771188 16.419298321294495
Sb 9.541742966440893 10.924413740879539 18.845276373427808
Sb 13.90633828951762 10.566149848314177 17.661799029356104
Sb 12.226373341225797 11.508677519261736 19.743886536729423
Sb 12.400422410894073 8.33316944560542 16.70271910273387
Sb 9.581588155604194 8.460908277145938 20.35667943817151
Sb 12.284104892821652 9.055634632292819 21.27022526249916
Sb 11.851089925219815 7.079251130218708 19.23969241508344
