38
Energy = -147.16717789 eV
Sb 8.158082415772556 13.23137783474925 16.92432796225612
Sb 12.235208907846632 16.27578139590831 15.811763413189773
Sb 9.563636673552855 14.125132466560085 14.588132635661097
Sb 12.872283473602185 15.861680364796086 12.667923757655654
Sb 8.535532966533403 15.47754192849505 10.280231637402977
Sb 10.559744724150114 12.846769349728214 18.49733851870184
Sb 15.132021143804717 16.375399318800095 15.70436637664642
Sb 8.287142755525439 10.362328886199071 16.396449859813593
Sb 9.843699913337327 18.072993682817202 7.617585611289835
Sb 9.779460759165802 18.095215701879784 10.545606983400157
Sb 8.020946750669689 12.8211975976117 12.48222861295815
Sb 15.078730865217443 13.879632972709837 14.12056160812937
Sb 12.813459571712523 13.83093530990434 16.985361418773252
Sb 15.223011798948239 17.328912191599517 12.98388757703619
Sb 9.295125592871948 10.457976909742937 13.712126155727333
Sb 10.513576257465038 13.52298443991572 11.17851323019775
Sb 9.38315427310082 15.202953744173088 7.552839312319955
Sb 11.123046014028244 10.463285378846244 16.899050939487562
Sb 10.10588488662902 7.784704373484204 13.56814188695215
Sb 11.646235887916246 12.061975993234329 14.485161073114574
Sb 17.41025628206615 15.047058812045972 12.826598889079921
Sb 18.62428866030729 13.608443882036699 15.18125453320212
Sb 16.520369637866345 11.722581822186896 15.481110048553381
Sb 12.07486723012934 16.183145679694455 7.6422910779420965
Sb 13.89434657633732 11.765937583105064 11.574572834631898
Sb 12.521266320389866 17.450548667843538 10.205318849526039
Sb 10.19017955059987 11.750369870616334 8.944108173294419
Sb 14.304220239158802 8.066704679526397 15.434183466053275
Sb 12.749608326483212 12.052576112519038 7.670722257265874
Sb 14.242070264850899 13.77965357567229 9.457006923732353
Sb 18.203527879009705 12.843205425017798 11.088541323082687
Sb 12.675187484898414 8.873893906751258 13.157649722604978
Sb 18.563031097270326 11.2654476417319 13.494581432947912
Sb 16.063052957001954 11.553872908452469 9.679489499300372
Sb 12.376167242344213 10.055163781571684 9.789025578258878
Sb 16.467324316077267 7.688531397923249 13.537550549973542
Sb 14.7968477482368 5.480311217770658 14.236167808007277
Sb 14.320549096985056 6.9009197362423 11.765375003692881
