38
Energy = -147.61938213 eV
Sb 17.66681025023358 14.853728679012223 11.84724898644187
Sb 15.850174313953953 14.972124181104993 9.600984667488833
Sb 15.770838860424425 12.767114733525705 12.598256105787712
Sb 16.472211840399662 12.19619511420067 9.47681191300997
Sb 14.817000591638704 11.818054949981818 7.165357391850633
Sb 16.327193745856988 16.56544507935393 13.752446629758236
Sb 13.830825990353585 16.933766832344904 12.365809773988389
Sb 15.927258020749438 10.859320776338475 16.582006835120065
Sb 11.409853410012767 9.115253980627038 6.638884163077944
Sb 13.793406589719504 9.380699254492727 8.202725173109346
Sb 12.56757189941942 13.616650609475794 7.182389795774946
Sb 13.574632090113203 14.280361779083751 11.324164690586617
Sb 15.871672053786613 14.149495292375791 15.260728877836883
Sb 16.710900810117117 10.245012142596263 13.899254066613503
Sb 15.443233133975712 7.94167213869495 16.381638044879338
Sb 10.369884240086442 8.474409032229042 9.28982491227632
Sb 10.386491697464962 11.826169429466864 6.550030476440571
Sb 12.561297041271802 17.150858824839364 14.931735718377325
Sb 10.103456998549046 15.410794510114412 11.736041202587627
Sb 12.58644478559919 9.575918978792117 13.959399127455209
Sb 9.585191258988866 17.376861684674775 9.682325319961723
Sb 10.724127813796743 12.769815096422665 9.24008668992612
Sb 14.979482483916355 7.974917440631632 13.516118026656123
Sb 13.16083845246637 14.639049254534642 16.165154739563693
Sb 12.226929033328721 10.186883676375563 10.466688732826105
Sb 12.034678849491398 12.882782786113026 14.172382497550004
Sb 13.25809127580568 9.80645122493951 16.781625827381575
Sb 8.948404254203261 14.989323942788948 8.224573237089787
Sb 10.682008138262596 12.130770326019858 16.67809829090451
Sb 9.77183914652218 16.601691928948714 14.387413422525508
Sb 8.52816942524468 10.114485921935097 11.525266222811968
Sb 10.57776779036338 7.782354957684566 14.998351418525061
Sb 7.4636716754587855 15.666757982123482 10.573762098845032
Sb 9.331080177488985 13.725477873201656 14.599961970756974
Sb 7.316585759537825 10.8411559958689 14.114026022007627
Sb 9.236271590811256 7.4704283145340495 12.475522076289998
Sb 8.931066551964538 9.823397332308248 16.228661083239775
Sb 6.538578689332403 8.420288672953934 12.760184501387107
