39
Energy = -151.63452582 eV
Sb 17.48570317322592 13.012484873603878 11.183250592857199
Sb 18.779401550284135 15.395237677257727 10.244352370318762
Sb 16.772983043621302 17.15128892807624 9.005612450020296
Sb 14.245217795243327 15.846026432493733 9.566277867895963
Sb 15.215450433493608 13.133204730097386 9.467919380580822
Sb 13.191215007844534 11.775495009641041 11.07027190672753
Sb 18.469498933888705 16.404986249788596 12.973398183875798
Sb 15.902256841129653 19.037713579114783 11.0577827098465
Sb 15.03557474708609 16.53234450741995 12.230819497345312
Sb 16.568223950322555 14.130679113572855 13.805427102255114
Sb 10.816450811292002 18.098422259323613 12.89978580405309
Sb 12.003991674340575 13.71621742798433 12.891053330622535
Sb 18.456110010514582 19.20835221014797 12.381203027295948
Sb 20.938263407566946 16.416210113336984 14.4148119970303
Sb 14.292545916939593 12.191998864958535 13.696095655113915
Sb 11.028941820743245 20.02433043856018 15.01334920838946
Sb 8.915808027008053 18.10842990248 15.095636856404392
Sb 16.34107479781973 17.126050415343272 15.568010119021622
Sb 14.155528908695125 14.399827288459923 16.867657414081467
Sb 20.038403415027066 14.624383688173408 16.52772196809514
Sb 13.304766354634548 10.539323286113072 15.850846974542808
Sb 12.904150734396184 16.520846434878504 14.224378457004327
Sb 17.669857572509297 19.687977001479165 15.120968172364632
Sb 11.638193356155464 13.047134218762434 16.136540719934562
Sb 13.660787109670787 18.815958247844293 16.015924153744226
Sb 10.534524725974157 16.07290166241546 16.446254641634262
Sb 18.619940936627028 12.519159343578528 15.185007688434478
Sb 18.263235857102693 16.632480522038964 17.671652697154236
Sb 20.069416812122856 18.498318470423552 16.288318418272063
Sb 14.752725870680651 11.790297444107214 17.996543586905172
Sb 10.349436029515056 14.139651573621315 18.64999349036919
Sb 11.948564967053846 17.86904145787846 18.13723401181119
Sb 12.894066494907518 15.346360826998596 19.3284309481504
Sb 17.568081536710373 11.251609307712222 17.594731943500133
Sb 16.22180007834751 14.853984833882748 19.939532513017365
Sb 18.538258808177662 13.123298856323075 19.567244938736106
Sb 17.382147382522394 11.863346129854829 21.907958417698296
Sb 14.697401187887559 12.835659096413206 21.40260030668865
Sb 16.564382213741702 14.493349870664197 22.809782773031845
