35
Energy = -135.39979515 eV
Sb 17.688165426594995 19.701465335809093 9.670441924979114
Sb 15.79772752007829 17.677460142729426 9.27267091066833
Sb 18.52001952925667 19.2032121759414 12.338572075006855
Sb 14.06614626806123 18.249011159155366 11.615352036977791
Sb 15.90695416376063 19.55620444268715 13.48281188390514
Sb 18.50353728492555 16.002048742215703 14.97793518234392
Sb 15.818831739704896 17.106225498998658 14.935865079862332
Sb 15.240593049693517 17.86577136129903 17.69603042163503
Sb 18.962134587735168 16.377921670311956 12.1588743743436
Sb 13.294301449839113 19.86343704079895 17.483964824930432
Sb 14.610048252491472 15.498997738179154 12.39387777761353
Sb 11.582841306262134 19.49980625688884 15.38059655000438
Sb 16.834223256800264 15.295997261404773 10.507969190943886
Sb 17.158336859450706 13.487324677332493 14.510503561412326
Sb 17.315566401561014 12.588767272455282 17.212518206567037
Sb 13.681518247911162 15.364128399500354 17.250842775430964
Sb 12.39033376483761 17.029923375976573 14.451609402600612
Sb 19.443542725412435 12.34140375448409 13.260245428344902
Sb 10.497127357338545 16.635093905674374 12.229224040462068
Sb 12.315779095285956 15.088626821147294 10.616554777365772
Sb 19.61164757282528 9.738001296478041 14.40452561664707
Sb 18.238983463799165 9.905076706788801 16.994312757299
Sb 14.294965500426505 14.096032784690571 19.77664637380323
Sb 13.27018069651699 13.453071670507004 15.070620882141748
Sb 11.541751090290143 14.88179142315516 19.134211103866033
Sb 20.044312718462077 12.017622993161188 17.805334332860863
Sb 10.519146429319642 14.227637805670264 15.646296606697454
Sb 21.417610541546857 11.84311109647746 15.247280743861158
Sb 8.833748634205822 14.584258811263766 13.365753855083847
Sb 11.88979149903779 12.274294713246169 10.996700404495487
Sb 12.276950703743681 12.131985479120223 19.317968733383612
Sb 12.91825600520537 11.108429785542336 16.704282521568146
Sb 9.110535206138024 12.264032050209535 11.617971715931013
Sb 10.172503919678203 11.33919058749393 15.831029295951454
Sb 10.876502293676358 10.587683176982665 13.141423132242092
