35
Energy = -134.76798569 eV
Sb 8.124234045045556 16.89259024272869 14.030953461871501
Sb 10.043943424584102 12.986727900805967 16.11941291702695
Sb 12.61192854594053 17.283399014883667 16.200150317166905
Sb 12.975620269302816 16.584880836965528 12.403223076084071
Sb 10.163950351020736 18.464865651350276 15.317949260281797
Sb 19.93658275985285 17.083132809377258 13.683857311575625
Sb 18.572589160837303 16.974265621973956 20.660369936638254
Sb 8.791562985102399 14.93310802381919 12.0738874119165
Sb 19.447392076357637 11.202424156145847 12.239318207754577
Sb 18.632338954092578 19.38828867605791 14.858487065777663
Sb 17.505611160700578 9.382156664619572 13.403179254818529
Sb 16.055554764963897 18.062691143876247 14.536852626315689
Sb 21.21573556729557 10.38352058543276 14.397528558752137
Sb 16.09909936119787 15.478874765383122 17.778891793802757
Sb 18.94879842915285 9.331604869983492 15.921063400028254
Sb 19.967337534946775 13.018477755357157 14.374379506553126
Sb 15.826492934195965 11.099313764522005 14.949405146630387
Sb 10.398744306514086 17.533847452570715 18.013235736867998
Sb 17.07683207121837 14.390790298104767 12.052012543481705
Sb 15.254256145937159 16.17401877782672 10.688952996314287
Sb 10.35124945256979 14.676488847044238 18.406402508074475
Sb 7.749773940812132 14.1584226096355 14.812892259602949
Sb 14.843080246850741 12.740453681427535 12.826028135883991
Sb 17.65876836300551 19.403769538112307 19.362769136703275
Sb 15.189753558539747 18.074683072166888 18.57186873406398
Sb 18.963976630843742 15.771354362877805 17.992686756718854
Sb 13.08191818051787 14.529922458947466 14.42602517123153
Sb 18.11087763217886 12.105855670722162 16.384613267718503
Sb 7.829386029728726 13.442030319185678 17.90799334884887
Sb 19.573647419741555 18.52769205744955 17.435991980528293
Sb 15.789768134487364 16.09692803760505 20.623693059467794
Sb 18.8722571557811 17.501789886617313 11.078264427755228
Sb 17.606331069817998 15.613721355137443 14.610541780856046
Sb 16.33523210518144 18.638569047000335 11.716261838743513
Sb 11.531857411252838 14.121151544230356 11.98850708944727
