31
Energy = -119.82381143 eV
Sb 18.094131038569248 19.070022635364502 17.948658446100037
Sb 19.203638650159164 16.48355404971233 18.458325757465534
Sb 16.95515140733105 17.41112601680691 19.994717784709596
Sb 14.086395964109675 17.029531971851984 19.633607867040205
Sb 10.655331004705884 12.378184476996957 20.244339196097556
Sb 18.042661052508066 17.060778669591112 15.8774914757776
Sb 12.730606260378552 14.296128674337915 19.295258469895714
Sb 13.123779231392023 11.387997227379811 19.208507420608957
Sb 12.556736342568547 17.363546748550085 17.256605352458322
Sb 15.580830402577218 15.573312028454264 16.059525710416782
Sb 14.222755339305944 17.872929439560544 14.968454938398509
Sb 9.79578784616066 18.37308020982923 16.46006211801854
Sb 11.97614651618057 14.458644871179185 16.481438655848983
Sb 10.8918508394005 11.740356181783206 17.5105617464386
Sb 9.83491589403186 17.245420649173933 13.857653885144535
Sb 12.518097284958746 16.091149945783812 13.478932440987801
Sb 9.239621130339462 15.584502385647257 16.160562625782198
Sb 16.292302115453975 16.70588023142894 12.004225719972357
Sb 16.45579907358544 14.277688236607972 13.570976524416276
Sb 13.63454439874924 17.32948641627282 11.113782421440506
Sb 13.97938036237944 12.887028503787738 13.259274360292123
Sb 17.300407200966124 15.765147668207588 9.49385814526753
Sb 17.97591648615948 10.382118038883554 12.877539726867376
Sb 15.180974579593316 10.223872441497551 13.60744222220207
Sb 12.822947742435332 15.193981144850722 9.403935815454874
Sb 15.128674921933634 15.374098056087364 7.670066996366914
Sb 13.828309741116579 12.67926579880766 10.386481367826244
Sb 16.353038233095123 13.093588015884196 9.06309456409388
Sb 17.510752580832243 7.701657879934573 11.86573571904088
Sb 17.542761856734312 9.929211564733137 10.052740341127706
Sb 15.011285323929258 8.90851474986015 11.03209009305259
