37
Energy = -142.5801942 eV
Sb 13.732955421219554 9.327690998071853 17.23723571179831
Sb 18.739731314014048 5.253932404792635 11.165497481988725
Sb 9.276610074318944 9.43443099395497 16.901760675503745
Sb 11.621853014647066 9.25630583270201 15.273876512506112
Sb 13.557088611848062 11.493197242926934 19.111428922426377
Sb 16.60817706227008 7.079195294269108 11.68427674132402
Sb 8.321205506037543 12.195178782077372 11.748912041377778
Sb 7.852945656491836 11.77015134811189 16.06617694801353
Sb 9.139196719811311 11.732315112940302 18.635419007172757
Sb 19.221771616384764 7.614145446565209 12.69744818267881
Sb 15.589057580255227 11.533114496169386 17.05724583690552
Sb 18.711094529413106 7.809388796484691 9.896137990932665
Sb 9.60051059527818 13.272281272798233 14.302981161566692
Sb 11.464115665880868 13.431386431142844 18.65654672300871
Sb 10.567795438369615 10.44803381549534 11.419043285568362
Sb 11.901479217598617 11.652429892410742 13.728292973661913
Sb 10.457682361949708 16.883266940042304 17.347514574756534
Sb 9.606115098082027 14.160554415543121 10.042320084841963
Sb 11.708049356580357 14.630607534501161 16.061473580554548
Sb 14.71060812806895 13.522650951322277 15.140879717882955
Sb 12.033602186432807 14.608108045519469 11.592372089006396
Sb 17.112808439406134 13.283503392998893 13.560612753062102
Sb 16.98499630439914 13.535651732423105 8.566468521214617
Sb 9.992228573279922 18.659175633068234 15.127479378792975
Sb 12.466468926867803 18.834200909400458 16.587962621432258
Sb 10.628568653102157 17.441897472235848 12.569705698867752
Sb 14.594762122983612 14.862309515046931 7.61483898959945
Sb 15.666602012908111 15.671749254719288 12.028213125602884
Sb 13.677069599702289 17.124411253401487 14.563379872244763
Sb 12.66156908551119 16.274030171402178 9.282480916856862
Sb 17.133975220576318 15.021187223211156 15.819288627510158
Sb 17.998389313442285 15.548572909678612 10.362388838776075
Sb 17.134130544340177 16.251946075943156 7.6704995108787335
Sb 12.972441258455547 19.091301893827442 12.589951203422734
Sb 16.550296910151893 17.38196009204547 14.208947048560102
Sb 14.606643806883493 17.983268355930637 10.480218412320083
Sb 11.858441811716583 12.38750580550456 9.661761976062294
