34
Energy = -132.92332346 eV
Sb 9.475150116690786 7.024808430125406 14.058679731327318
Sb 6.690511297908099 12.53498846872323 16.102003803744644
Sb 10.98726351167233 8.686017301555202 15.85375441651539
Sb 7.653069573106362 11.025279620765428 13.815031627426071
Sb 12.016708603009585 5.749124124791888 13.47388301328562
Sb 9.341340042876997 12.413578761836126 17.272472334521535
Sb 10.678567202868736 7.306860267582321 11.455758720291175
Sb 10.351445943502954 11.303722483715177 14.793400169253099
Sb 8.381265222911473 14.856620370530637 16.114701557836025
Sb 13.412521955071504 8.21238621327603 14.322623682162293
Sb 7.783103866314849 13.280069716536627 12.047284698060079
Sb 8.688797180011438 10.694993709624306 8.881755601542846
Sb 10.362721530167992 8.509005335792141 7.943405762238953
Sb 10.247042632879799 12.41510758687514 10.659308662670593
Sb 12.366805435451136 9.610786219369711 12.026767264351168
Sb 9.430311259561702 15.18929684459507 13.443686123150309
Sb 13.217816759614594 9.112331708773707 7.80823673757596
Sb 12.019764894523238 13.813420771165461 13.482799005078924
Sb 14.452310968261271 8.510349417470975 10.37366608645608
Sb 10.35966830554791 15.06825831782027 9.463744220571613
Sb 15.999280329435301 10.890855200642115 9.79821867029388
Sb 10.092487771281501 10.971513003750154 6.398755660265859
Sb 13.026659829459808 15.276818050984565 15.716930018964218
Sb 11.420351824877145 15.507582539454877 6.78738524434782
Sb 14.693247498201115 11.696267504953962 13.544631182996223
Sb 14.235658382067427 12.948266515655758 10.939617064735554
Sb 13.36436607375877 16.4344996594487 13.070002369712824
Sb 12.250095878114077 11.798486686632911 8.139835134422562
Sb 16.175140095360614 15.813809246026109 13.401762811279312
Sb 13.792344094058366 13.8462279732107 6.896396856965093
Sb 15.535444745468787 13.791526436974152 15.342334391017559
Sb 13.161485647006936 15.714314933854965 9.066096863721734
Sb 17.351160801193075 11.62204610279102 12.278088821818434
Sb 16.835409680039568 14.22009942696957 11.076300643673816
