31
Energy = -120.95356907 eV
Sb 17.8380414107296 13.538043941488574 12.538797293512294
Sb 17.650122311798555 11.617049718908953 14.723300301606965
Sb 16.593979329547356 11.626712031932641 10.702526613932717
Sb 15.254641251684426 15.446011939838368 9.370294343470059
Sb 16.562947186671266 9.646614725268615 12.854089171554602
Sb 15.352500786082024 17.237460133568092 11.686510532736778
Sb 12.650710619885304 16.638901959294156 8.985405586548794
Sb 15.302973199275034 14.773473434850874 13.171836194077203
Sb 13.030758090414086 12.461724486891804 8.0021157512913
Sb 15.21133700151005 15.205761831300569 15.999122112330742
Sb 15.259368082350464 12.33171065036519 16.209449664272093
Sb 14.057971575964118 13.103357519839774 10.649762437165212
Sb 11.002147957685034 14.301413966190918 8.812557997545873
Sb 14.202979560961351 9.147482635427485 14.468166924121796
Sb 12.434535169728665 17.480822741143733 11.78083729167487
Sb 13.318597001817388 11.869914516648272 14.083210297887405
Sb 12.900796979447453 8.439970141776582 10.218951694191386
Sb 12.110137037686915 14.81663834312363 12.912710843814933
Sb 12.236711550122378 7.72625980626075 12.925708948100315
Sb 12.25447870797722 15.401807340269787 15.809381414482438
Sb 11.429922878340195 10.948094736061803 9.90542524897596
Sb 10.290820612066696 8.495758129448289 8.948548577501114
Sb 11.676243512620166 12.621975187228278 16.387202265818345
Sb 10.468809898763519 10.114882282138653 13.048429348555795
Sb 9.71355241953699 13.13740684968093 12.338194534137463
Sb 8.710958564894415 8.564561013312778 11.389186171453042
Sb 9.085508760274383 13.049648125554057 15.207330565623254
Sb 6.8530296824534425 13.072679136965107 11.773500843041548
Sb 8.4259783618739 10.253585942031233 15.105412262500725
Sb 6.534231935255188 10.366732311052349 10.838344967409274
Sb 6.034839419932807 11.01317527948726 13.603320658015388
