35
Energy = -135.59435094 eV
Sb 19.096677641476198 10.751662785290263 16.227826191655474
Sb 19.52348345127759 13.342199507189608 15.090158164727423
Sb 19.494612054495217 17.717160475551673 13.454316853337449
Sb 18.03148760488318 13.034182133170024 17.64975677434552
Sb 17.18180272593419 13.502406301783234 13.426614962475394
Sb 17.827949277143244 14.768263824584379 10.877526420759628
Sb 16.621447819483386 10.848743601236235 12.464150455384402
Sb 16.384055085602366 10.10489738004123 15.357290448381276
Sb 17.81079323942699 18.812440434081275 11.390718662621017
Sb 16.313709015742983 12.606734333494355 9.77791497111656
Sb 15.532340905136035 12.73023618637846 16.13327998156603
Sb 17.308887405856456 17.242369462989604 15.26360681301031
Sb 17.66444306421288 19.848119263259665 14.064166659556548
Sb 15.762336854588257 16.816109570962677 11.07068007255754
Sb 15.049790767855582 16.22352685699503 13.771026708371608
Sb 13.87719344406781 11.759954808685245 13.002002684540887
Sb 13.70292102937586 13.487096919433531 10.399593919706332
Sb 13.660305832886614 11.205562552547763 17.753440606056905
Sb 15.486427065924175 12.307112213646644 19.919115789403264
Sb 13.599956155820355 18.614944099415688 14.563025316273745
Sb 12.792399515224922 10.760915391113672 10.502901740049559
Sb 12.629448841065642 9.936821775093033 15.199570597661374
Sb 11.88081200422649 15.840998528034001 11.877952467953389
Sb 12.644529793135709 14.782976442283173 15.94981062716033
Sb 10.934474739674018 17.910989057545304 13.669089596194953
Sb 10.692499294995637 13.447595199976204 13.492824574170355
Sb 13.762625745152388 14.301389776289362 19.94306645927098
Sb 10.187642668383836 11.299945845510731 11.639852066373596
Sb 13.011393547258976 17.379774277915974 17.16929125107392
Sb 10.407200948205727 11.473218423281129 15.738639508791776
Sb 11.56788408241965 13.200248597620732 18.10164076309754
Sb 10.388546302357767 16.56172888157019 16.187067931922375
Sb 9.244876615164316 15.829037740190731 10.687686240613766
Sb 8.546759557987603 13.118943517821563 10.08336462183615
Sb 7.953602872438539 14.219602293274711 12.694808904421944
