32
Energy = -124.23499919 eV
Sb 19.0360301833081 17.37324152128959 18.16103691982487
Sb 20.006251209627067 19.012024582066818 14.218404582689617
Sb 17.311778021141105 18.461800838015815 20.18948075749854
Sb 18.798180544038864 16.389261920201438 14.214960502983832
Sb 16.80203294057365 15.852452353596192 19.178669499120698
Sb 18.391835356713333 18.146729981679183 11.988486156805552
Sb 17.7036734296338 18.47448708969376 15.86318287577781
Sb 17.27448404190274 10.522456253490226 11.520999313474455
Sb 16.271240032198882 11.42285692303332 15.818616226730523
Sb 17.34194492101991 8.8074278384327 15.793600492152231
Sb 15.261680285964083 20.261259785980325 19.179737947555477
Sb 16.754281558064893 12.6125637097087 13.268525824357285
Sb 14.375716977058318 16.04019798964995 17.644728855440878
Sb 17.276749923134652 8.114563100243966 13.045710816197474
Sb 14.072698418978074 20.666099012021217 16.607244671933245
Sb 13.10751609678733 18.55391636116446 18.36114884983386
Sb 14.867407529355287 7.480146056223782 16.625184949224415
Sb 15.6437628652176 19.07083169832729 12.017037018955017
Sb 14.027033596852807 11.146977634794201 14.082432845865352
Sb 15.16189371314232 15.495381744605536 14.695354104601659
Sb 14.592227055899727 18.546440673808203 14.696835890419859
Sb 14.671353242019812 8.976441793490615 12.269776795663153
Sb 12.697562155025874 9.232959494517344 15.995440301997071
Sb 14.808867081722251 16.361850225052066 11.76966441794169
Sb 13.322013989168605 7.11787147594811 14.256472093152865
Sb 12.64068172279341 14.21983072309151 15.229246989682563
Sb 11.738363098061862 18.66076226870737 14.038088793380258
Sb 12.24205891350593 17.602334250014003 11.42199117893475
Sb 10.94911696325692 16.51368374042389 15.763612256850895
Sb 11.06592777968935 13.3245089590324 12.970491751656658
Sb 10.25978900010192 15.529151002028836 11.340413541719347
Sb 9.074875700580442 15.247699513019594 13.926994878620835
