38
Energy = -145.18175009 eV
Sb 2.603945479246103 12.803734263700868 4.459318623523845
Sb 1.995480758865015 13.193371230538501 0.041679821713201434
Sb 1.6755834988742682 2.347526479072707 -0.442991540637764
Sb 20.569427415986187 13.8159366754158 20.419128169206974
Sb 20.505858000813216 1.0822094564022409 2.652077227441476
Sb -1.6737749619790552 17.53360036540653 18.565384934865754
Sb 17.841416551681736 0.09264420882303853 2.24179317307188
Sb 14.263565675655997 17.738234630497818 14.975443416405104
Sb 20.75138856051721 1.7198109319947323 19.069586480678197
Sb 19.745069193537315 0.08173655244721026 0.07982647133102364
Sb 18.094962607220086 3.8161766032850353 21.707987359365383
Sb 3.6605716318653783 15.033724286309248 3.0977801280821606
Sb 2.1467060674523317 15.809034654875122 21.212502531419197
Sb 17.708705303383898 19.090622014715628 0.4784042817562463
Sb 18.477174654778338 16.331045464919594 22.32587610111557
Sb 17.391189333316568 20.35729298651823 20.316623209747355
Sb 20.664844237881535 4.2658505453953754 20.43334537078564
Sb 16.48676726088462 21.40496303094539 13.566596648566517
Sb 20.540103775103873 19.688295753908722 0.21632798350676313
Sb 3.259644637096034 3.825970221142411 1.425037125277069
Sb 17.391410545216647 21.084565831850945 16.110310286299097
Sb 1.7860316161228835 5.192077635516905 21.814772158154135
Sb 0.3936908678604162 3.9349559931258886 1.5484112496173714
Sb -0.6546092259828719 16.514537335162697 21.04092448349348
Sb 16.113735431437068 17.964242828550343 19.4670097978233
Sb -2.1835832624843348 20.085534304310713 19.759575301178323
Sb 1.1856645123130098 15.466019487968008 1.5054345190182676
Sb 14.66683793366949 19.45109497077039 12.910265297353687
Sb 16.385892799501697 14.487914869085898 21.4951166258102
Sb -0.3916328749561619 11.70977748156736 21.727236050351355
Sb 4.1060298070943695 12.316910968650783 2.247709027203798
Sb 19.237539456877986 3.882721409741362 17.928077879441723
Sb 18.369665689905744 2.926646178895351 2.0416105771835267
Sb 16.101906989454044 18.758452206354967 16.714849002752953
Sb 18.105312948764986 12.303361285281966 21.676114109227218
Sb 18.268698414491887 16.0274183624277 19.47124203624429
Sb 20.273465816329107 13.38685800792402 0.8276686964809951
Sb 17.918556116025666 1.8651778536815726 19.543477575996004
