36
Energy = -140.79336397 eV
Sb 17.31153435094682 13.259638312781329 10.630532490883434
Sb 12.629941745657403 10.943040377864671 6.3846349216658504
Sb 14.362687291709781 10.882317826325929 8.722400400838993
Sb 15.261907188806402 13.639884471023946 8.557607286139952
Sb 16.458997519949076 9.379073228037576 12.93169592841244
Sb 13.869776929459785 8.49105570876892 11.923775649418992
Sb 17.36509614677269 15.513584842019288 12.492131858064907
Sb 10.25721279150098 9.545806505985688 7.1943259339954055
Sb 15.591139737309613 12.105888697103813 12.65543436120259
Sb 10.10863653430441 12.348193040796849 6.584300593277532
Sb 17.173328633014258 13.506991828132335 14.59523199187093
Sb 12.603696409159337 11.034770279542677 11.0490835090688
Sb 13.474038724420845 14.634387727453026 10.58279584748863
Sb 15.058790704894006 16.874693814318984 11.38052179862951
Sb 13.399426866832211 7.562732693848197 14.683649243369947
Sb 15.438492452152639 9.376268797056499 15.667408012552357
Sb 10.991217600713819 8.897698839642759 9.943769681035745
Sb 10.274856587005367 13.025883839887346 9.376728311177493
Sb 11.985628251890518 17.047434860962536 9.977250499627953
Sb 15.405458830707156 13.117908213607826 16.954910501406314
Sb 12.420587618075954 10.561630253609735 17.634609076336176
Sb 12.55467094624993 17.336970487321146 12.822160422871152
Sb 13.645321511718215 11.620510334922526 15.311484925984816
Sb 9.446226352539085 15.810434731259981 9.242135721700926
Sb 12.534800520256839 14.62020191725354 13.972727146992716
Sb 10.60437002724182 10.231056542374995 13.757110349044
Sb 8.840616698791116 8.79699575358615 11.920334909569817
Sb 10.214717785235663 13.563395682410391 12.629893728303053
Sb 10.993701005257114 8.562702698096894 16.049182030251096
Sb 7.438119566532404 12.982736625802605 10.15490265347228
Sb 13.44095784633019 14.878912421496008 18.23480522491399
Sb 8.083259604765122 15.312161731568068 11.738572349738932
Sb 11.119843460724532 13.142859244254936 18.219339031694158
Sb 7.088439426461591 11.10007463445473 12.334462852920625
Sb 11.256033013553518 15.402692160546065 16.435314797379625
Sb 8.60328651310696 12.196228069929031 14.56159315274585
