35
Energy = -136.87700209 eV
Sb 16.919243284419917 14.709651206310633 10.001235348032793
Sb 17.69734209092876 10.971171141425874 11.765869292764659
Sb 16.58690445356186 13.485366425591923 12.5693956278655
Sb 16.83872867960758 10.393460835083769 9.035318074138683
Sb 15.63119073167545 12.839599365661245 8.203130143426552
Sb 14.737845155736977 16.636169539747826 10.188404663527926
Sb 15.960002229078329 9.01169369029102 12.969745932704472
Sb 15.323165107631095 9.996630783180136 15.593357197591368
Sb 13.770743951539153 16.222512439076073 12.863430348519321
Sb 14.651046248292293 12.84491180199495 15.563197633274136
Sb 14.261074720845318 8.86375888448707 9.229050623143102
Sb 13.694561820039196 13.268763468528299 12.816886972502394
Sb 12.912810362599785 15.391435613417615 8.30931679968205
Sb 13.097925462018637 12.79495866619304 9.586427671459852
Sb 13.702403523723662 10.242628943310685 11.75149471038351
Sb 13.051666554328591 8.191387925158907 15.51566248526064
Sb 12.478557283151796 10.56822076955708 7.745287057860385
Sb 10.537653917228203 13.373745098329684 14.488761540414986
Sb 11.242606193634785 10.411112381102322 15.581261349932822
Sb 12.111103042867757 12.799714558901163 16.93802175423025
Sb 11.963233387262848 6.884177736499455 10.486500247161375
Sb 10.494007385251033 8.608711780036028 8.714582511187457
Sb 11.654709214438867 8.532110594259484 12.851032973170348
Sb 11.160671966836652 17.205791480886706 12.180850164625955
Sb 10.416296583240118 16.1614475253198 9.521578048832545
Sb 9.878842601281345 13.617922359920705 10.716707344441533
Sb 9.355925484179577 16.022910304134058 14.17547508441529
Sb 8.921257241443309 10.941978660491277 12.591590791190328
Sb 8.868645842853942 10.03661057075253 17.12045031475081
Sb 8.103037319853602 12.628578889979575 16.06972693953283
Sb 8.147942249409706 9.532676032943538 10.152435701718648
Sb 7.770239793054291 15.126421798164586 11.912333836516455
Sb 7.164429407483725 10.214055334948519 14.790349678303071
Sb 7.648198376894313 12.264374462506494 9.293047994335158
Sb 6.510782428370938 12.470133026569455 11.972877237865692
