38
Energy = -136.19750566 eV
Sb 10.33868385 12.908459392605899 10.33868385
Sb 12.83051805386747 12.83051805386747 12.83051805386747
Sb 10.33868385 14.8820064134222 12.590972082073389
Sb 10.33868385 10.33868385 12.908459392605899
Sb 10.33868385 7.7689083073941045 10.33868385
Sb 10.33868385 10.33868385 7.7689083073941045
Sb 12.908459392605899 10.33868385 10.33868385
Sb 7.7689083073941045 10.33868385 10.33868385
Sb 12.83051805386747 7.846849646132532 12.83051805386747
Sb 12.83051805386747 7.846849646132532 7.846849646132532
Sb 12.83051805386747 12.83051805386747 7.846849646132532
Sb 7.846849646132532 12.83051805386747 7.846849646132532
Sb 7.846849646132532 12.83051805386747 12.83051805386747
Sb 7.846849646132532 7.846849646132532 12.83051805386747
Sb 7.846849646132532 7.846849646132532 7.846849646132532
Sb 10.33868385 8.086395617926614 14.8820064134222
Sb 10.33868385 5.795361286577797 8.086395617926614
Sb 10.33868385 12.590972082073389 5.795361286577797
Sb 12.590972082073389 10.33868385 14.8820064134222
Sb 14.8820064134222 10.33868385 8.086395617926614
Sb 8.086395617926614 10.33868385 5.795361286577797
Sb 5.795361286577797 10.33868385 12.590972082073389
Sb 12.590972082073389 5.795361286577797 10.33868385
Sb 14.8820064134222 12.590972082073389 10.33868385
Sb 8.086395617926614 14.8820064134222 10.33868385
Sb 5.795361286577797 8.086395617926614 10.33868385
Sb 12.590972082073389 10.33868385 5.795361286577797
Sb 14.8820064134222 10.33868385 12.590972082073389
Sb 8.086395617926614 10.33868385 14.8820064134222
Sb 5.795361286577797 10.33868385 8.086395617926614
Sb 12.590972082073389 14.8820064134222 10.33868385
Sb 14.8820064134222 8.086395617926614 10.33868385
Sb 8.086395617926614 5.795361286577797 10.33868385
Sb 5.795361286577797 12.590972082073389 10.33868385
Sb 10.33868385 12.590972082073389 14.8820064134222
Sb 10.33868385 14.8820064134222 8.086395617926614
Sb 10.33868385 8.086395617926614 5.795361286577797
Sb 10.33868385 5.795361286577797 12.590972082073389
