35
Energy = -137.33591801 eV
Sb 15.64901735499601 14.14245169523743 15.788776613540485
Sb 14.873825733705432 11.464618229096798 16.583164952919013
Sb 13.132528306035333 15.330150095256215 14.908411919423026
Sb 11.99787632924636 11.935030231381576 16.536943152324167
Sb 14.185757349977926 16.66267320177019 12.55654922670206
Sb 16.37972609898083 11.876930683625556 14.167765100114526
Sb 15.817680514881513 14.588821495116727 11.482971409780287
Sb 11.782110864004377 13.002863982757482 13.868845824785089
Sb 10.331629097709024 9.669161966775631 15.773491497810806
Sb 9.457970938073617 14.10964881335628 15.211637973260679
Sb 11.880122488411093 17.18054558255755 10.836374963579065
Sb 8.154661994601517 11.621462949228311 15.9204524011229
Sb 15.45359011524846 15.167570228605227 8.701517508736988
Sb 7.975169389202927 15.163533921460754 12.948918383238086
Sb 10.354422404553677 14.791211539415746 11.327924644934667
Sb 13.734241557439384 9.005860854766308 13.816124093386295
Sb 14.466727029168394 12.056659056454283 11.975771804267335
Sb 12.809900250860807 16.309974959750367 8.238183428750004
Sb 15.43233392048783 7.835667086791833 11.844827189773527
Sb 8.90247033506853 14.311546989341531 8.89079945065592
Sb 10.678984802304653 9.7803563065297 12.897204152223319
Sb 13.370664709721884 6.25239542158231 13.034490218225528
Sb 6.393746025360878 11.009643672785085 13.69966801276356
Sb 12.480420573281705 12.21279036713694 9.347962675830598
Sb 6.896791910476556 12.866667300046624 11.584177276960126
Sb 9.343702269363407 11.811871103012736 10.45752686746053
Sb 14.933791705805548 12.457500617569567 7.830869414448659
Sb 16.33508720954419 11.080151891371617 9.947684447749277
Sb 11.332088195799257 13.974878719636333 7.36390338965405
Sb 10.698791425699667 6.974754023422759 12.158436137172819
Sb 7.845492345336515 8.78904637821302 12.575324175292257
Sb 14.951386887916861 8.678946787801914 9.139447537167696
Sb 12.336221819516574 9.541226621473244 8.20321602312327
Sb 7.968429946256175 9.364670295535356 9.741855729984684
Sb 10.405265918029961 7.72134474820523 9.381410219906424
