36
Energy = -140.48382777 eV
Sb 17.978024648773765 11.298113435225003 11.81142642263559
Sb 16.312550704457532 10.577674053422367 9.543192541443476
Sb 16.569971512089875 10.538215770295709 14.213355181589778
Sb 17.05803154305293 13.332916899199295 13.629761893573804
Sb 14.983817704119986 8.413427517215021 10.940843644105486
Sb 16.235453177970925 16.005317955125054 11.10855225699383
Sb 16.246314966011646 14.547775741552586 8.616731880739149
Sb 14.29434011131807 12.452823772742628 8.656764493490273
Sb 13.584766162592576 9.853045155044681 17.38593320956739
Sb 14.036115892148908 10.281018004401849 12.876389192489745
Sb 14.678937602251033 16.93979946195872 8.860945688688336
Sb 14.477611296196299 14.234807822606504 12.679286399617537
Sb 12.339049243330434 7.894424367169745 9.812816807831407
Sb 13.250264690852333 8.200917675205128 14.711538665233748
Sb 13.285978589175679 12.570830900147289 16.143662088204206
Sb 14.07718219454943 15.382826967336793 15.3397335709499
Sb 11.886058715205088 6.5697031433261115 12.36662848381437
Sb 10.923743475586068 10.13609657997599 17.917192315302575
Sb 11.294799365084558 12.081572894922974 14.033154947639943
Sb 12.276072175368892 13.389858193656211 10.488678464811382
Sb 10.644782803165413 9.388126581427988 15.069232265036884
Sb 10.826390332000868 10.256656347621474 10.540280108266952
Sb 10.511446465286943 13.109309704774892 16.672129628594927
Sb 9.319605221713905 7.3537071320484495 13.200924257826568
Sb 11.352463978198555 15.967216520848392 15.766758165805586
Sb 12.31019425896013 16.32897357814682 10.41018302519435
Sb 8.5490984377779 8.51017855964855 10.694996785634258
Sb 10.432594978063339 15.23917682533367 13.12098801560338
Sb 10.913629801942868 13.63282490307212 7.9651753401924505
Sb 9.567454762128616 11.043101230617802 8.033174284827954
Sb 8.615200440034977 12.542095157184509 11.784979224610538
Sb 9.813424179384366 16.181969719835422 8.903983207376854
Sb 6.604416964878471 10.495234438768795 11.478345304427174
Sb 8.67394559539541 16.884302279156326 11.488085293205636
Sb 7.558234951721766 14.828316774937274 13.175703616049066
Sb 7.242971369321554 12.262582246159653 9.28341163873678
