36
Energy = -139.19456552 eV
Sb 21.124487987336394 14.177448758386891 16.673386290306556
Sb 20.061709172416275 16.553352326519153 15.437215753384665
Sb 19.300693198944717 12.015608746411488 16.003434245978077
Sb 19.450359748760064 14.765624419730006 13.26672701628626
Sb 19.15264713670214 13.322956985410181 18.57032483975179
Sb 17.237832436094536 13.467363708195085 14.571964739565257
Sb 17.62130999707805 16.631267503146574 11.974145638167387
Sb 17.278273157872885 16.75086692260525 16.107894149015667
Sb 16.902679768008486 15.108473999701596 18.43203795136797
Sb 17.356599111717248 19.436416825935897 17.154991765435657
Sb 17.851315709962538 19.152754441861763 19.956616283223514
Sb 15.499807940687651 9.972835876585368 12.336522291492118
Sb 17.802701571817448 11.746807961585708 12.279276044251441
Sb 17.910202057429615 16.5806710394767 20.64711928840653
Sb 14.753834150548634 16.67104677371039 11.868591175666094
Sb 18.10279202162455 19.367485088305088 11.833490224367704
Sb 16.12633550045288 12.780918164295295 10.153865992632687
Sb 15.662415739702404 20.04494605552041 14.0898029367614
Sb 16.323024068373776 15.616977695072883 9.618837750586588
Sb 13.701246453639213 12.117670063632225 11.661064832518967
Sb 14.460555219459696 19.20963429712263 17.691521718413256
Sb 15.064223223228355 9.570839009859885 15.134804490176005
Sb 13.747272219727478 13.837365980445643 13.973640655242278
Sb 15.280656924438642 19.501413952816353 11.277574830033029
Sb 14.45222597104883 12.14318697293315 16.22139464790203
Sb 13.134604226909953 20.704376477801183 15.636668205840484
Sb 13.880914557484177 18.00309232741515 15.132069778470006
Sb 12.600727151875445 8.412676184066488 14.260206390684397
Sb 10.855006446797947 10.361987590508022 13.092049619156759
Sb 10.956331367501535 13.008108163433377 14.383974492700936
Sb 11.613270363945484 11.946090445176303 16.959172889965775
Sb 10.52724957448255 9.478832475225069 15.88427053918092
Sb 10.620849118512782 16.372796090073756 15.649458525474781
Sb 10.859917689709567 17.676458846148595 18.191012526616397
Sb 9.393652820002815 15.225713018880661 17.981356522110865
Sb 8.339907563497222 17.626395072825385 16.83300469839679
