35
Energy = -136.87959042 eV
Sb 17.21726390913775 13.680379563729673 10.478075961264889
Sb 17.776347571706307 11.043484552299473 11.487171963166025
Sb 15.854910393918178 15.159118387582536 12.571039524119614
Sb 15.32458116069665 13.322615304719422 14.738915871339495
Sb 17.433128170159797 11.45473224330085 14.313709432808206
Sb 15.188201744662114 13.014282927263693 8.50803385459831
Sb 13.855388119920253 15.538908718694799 9.042367954084629
Sb 15.657060936426499 9.340507795100756 10.531182690259108
Sb 11.637956468670076 16.93508419024925 12.465359544327054
Sb 13.16054364391719 14.575551735345352 11.686762653886507
Sb 13.019599109509437 11.776236039120976 13.816443770674283
Sb 15.929606188226202 9.082549837468404 15.05519400152183
Sb 13.493213321626584 11.240961901000269 10.035588762693509
Sb 11.298725023537717 15.25608987809635 7.682458545029057
Sb 13.133714178803217 9.799979451703338 7.502402454159496
Sb 10.837130072949753 11.101550231222603 6.31200492869822
Sb 13.757542495561422 10.550174864611835 16.3590243529918
Sb 10.253799900348152 15.427528407117727 10.397553986991362
Sb 14.099658590680814 8.920432903298185 12.890226031078434
Sb 10.660310893602567 12.62562694329795 8.756620162092181
Sb 11.48779759729052 13.551851308241181 15.689877152760127
Sb 12.114349271676247 8.171965165698309 16.365200665387242
Sb 10.538091741929927 8.552579565503386 7.611503239242092
Sb 9.850962539943273 15.450280588605668 14.24056933077372
Sb 8.971310863875228 13.343176340411162 12.459046279066076
Sb 7.404058697486815 15.03839162932385 10.70079350099909
Sb 10.326276864198517 7.792840376546152 14.140766650368196
Sb 10.266080648640951 10.100731456475023 12.383819927787767
Sb 7.754010082419477 12.965460978110288 8.687988873950374
Sb 9.400179057454757 9.132576580588672 16.538515230341
Sb 9.142100400474762 12.025849448508717 16.456569574077186
Sb 9.119352063370416 8.611458295025633 10.134619424999002
Sb 7.082806707636055 12.377549011899857 14.4104193042675
Sb 6.92605180545725 10.496436175755852 10.034182289338656
Sb 7.4116639631143615 9.926831403112367 12.899766309886498
