39
Energy = -150.65933406 eV
Sb 16.47450652279431 9.386537418613381 16.576480352182745
Sb 14.580893935138805 8.754165182796335 14.494730842436457
Sb 17.21313688603619 12.04043550151083 18.743994785616117
Sb 14.890799062224943 11.36865809238754 20.29349003499394
Sb 16.333114307267138 9.364661315659076 12.30517752420884
Sb 18.516503355012674 14.334727845603613 19.962287131628234
Sb 17.477796409641687 13.469078926781748 15.651447300319766
Sb 19.06134825063036 15.369299315644962 17.272221745326366
Sb 14.015601053077669 9.652792704036273 18.065771138089413
Sb 14.548762126443991 11.355157097358346 15.748999624984643
Sb 19.744675396765075 12.113459279630499 14.510265642546639
Sb 18.327961013754397 11.491961975888522 12.108275065306184
Sb 14.742636998836366 13.607131511719937 18.497711902314286
Sb 16.85855404290689 19.56650815024734 17.828382452539483
Sb 14.11793761883437 10.222772001614315 10.654332353625675
Sb 12.80113417714368 12.157413937243613 12.356275058353953
Sb 18.432335481055958 14.283073083947237 12.99666635997861
Sb 16.501491532553235 16.726827292028382 17.560535979979658
Sb 15.930758625067712 15.665422110023476 20.197332225947807
Sb 11.47114847723052 18.389324347217638 11.50636692519597
Sb 11.967080920222452 15.511657809525357 11.744283037555537
Sb 11.317648868576102 18.071729345316683 14.458138096773625
Sb 10.173672407838241 16.74844123492935 16.911110356675323
Sb 11.323905335348636 14.730386445891515 9.07654105320397
Sb 12.139321814811689 20.689088406927695 15.30149957120057
Sb 14.200669374690216 18.409133231418114 12.09715404677418
Sb 14.40108269307059 20.960129198185527 13.541712095778445
Sb 9.541463796829278 14.59663638868332 13.0631833641293
Sb 13.486862724221158 16.168189149539426 14.754260572403233
Sb 15.366670136558556 16.220440327541198 9.725377867030554
Sb 14.032318498918398 14.291039336247463 8.028348723204694
Sb 11.068296096776876 14.389466535932995 15.532935235919894
Sb 13.859512419670008 19.401851818999035 17.411585057124533
Sb 11.209442709556638 11.99766249593372 9.898435355635234
Sb 9.914286423297296 11.769171979778234 12.44923633663094
Sb 15.365423415301235 14.413209982175237 11.850272050419694
Sb 15.666878640975773 18.893438461358063 15.203444920036459
Sb 12.956009840908806 16.580898836308407 17.616677755862433
Sb 15.651499322860234 12.521162638205638 9.688200770914966
