35
Energy = -136.16922124 eV
Sb 12.184307606987431 10.471877936999904 10.692182050254388
Sb 12.081814371068724 12.793680780866381 8.986145794089937
Sb 18.66161501885494 12.855836680728668 17.324209951247344
Sb 14.19909208787051 12.820648658110565 16.827131001093516
Sb 17.607588794997078 14.610160116468624 15.289089879521521
Sb 17.21639709332979 17.29138125211482 9.903797459727393
Sb 12.76736775219849 11.817943832779498 13.180082577854389
Sb 15.660493350687899 16.49849017575487 17.824916169360264
Sb 14.760827207488905 18.304032939656082 11.109269234228766
Sb 9.08126532822152 17.3500344328924 12.758570161336063
Sb 12.764409652636006 16.66925121865236 18.024843944057803
Sb 17.96868255971978 12.975763939768697 11.392883412373758
Sb 13.870808991364942 9.364525776645882 14.271765225857852
Sb 9.398677506784441 16.40244905303905 15.487720224631179
Sb 16.621287636493236 10.290460070299313 14.233788670632485
Sb 18.45016734379533 16.00838456513339 20.459433291529688
Sb 8.473212396901623 12.782356599615195 11.826801639046199
Sb 17.75898816005933 17.206503245192813 12.71902674766746
Sb 15.005440037702568 10.72370039348906 18.611802833866143
Sb 17.352292209402243 10.266675333516984 17.00010161618985
Sb 12.106549233340784 15.37818326324711 15.488431897380005
Sb 16.392304774091077 17.767138215703447 20.249792954027853
Sb 16.683864922151084 14.511180602714912 9.284655228835767
Sb 19.427487933795934 14.88861853893621 13.003125473681933
Sb 11.837667363168334 13.954745781162597 17.99890527042657
Sb 12.842623244032348 10.290585849081713 16.78188865397351
Sb 14.094522890258485 14.37062526923611 10.574918911171263
Sb 16.76573998932987 14.134057391030018 19.1612018367495
Sb 7.724915573523313 14.958323725833914 13.628215678287692
Sb 11.432783764372541 15.833605013232573 12.003882359647468
Sb 15.054573382294102 16.238056338712852 13.128250604319645
Sb 9.936576455448161 14.423470419921172 9.999003013106622
Sb 15.966466925848138 13.022250438908932 13.514668689801258
Sb 10.170823788348288 10.630549372528234 12.728494253931986
Sb 12.82616409469459 16.782498320437508 9.623584591937
