39
Energy = -149.91500731 eV
Sb 20.62569063658159 9.534132435861599 13.827987200923012
Sb 18.000936403813935 11.883679473452398 11.743724872987833
Sb 15.365335074961296 17.960218427703253 10.59296023660971
Sb 18.66026843197357 9.041034828123701 12.031993756295488
Sb 19.66792150949215 18.586905885106027 12.141301137361657
Sb 19.836162776023166 12.31368067738248 13.911869455363862
Sb 14.573400689178817 16.053580528442588 12.697794745678609
Sb 12.037981831449983 14.75109244596052 12.173577845881692
Sb 17.999013870407314 16.756157385825805 10.664180681084837
Sb 20.644234813830952 15.966789704377346 13.022558071022
Sb 11.804407999048781 14.560109823295315 15.07266338608507
Sb 14.478560872060697 13.182522374966807 12.164217129304598
Sb 14.929045577431284 19.295518601378742 13.125667479632108
Sb 17.261028634243388 11.005512743636436 14.391959806636821
Sb 9.011371224293685 14.98820159044145 15.669470385499599
Sb 10.655480302807103 17.327076928640157 14.963732029451686
Sb 17.655952007274145 18.447933924431528 14.192490688396902
Sb 16.867178566772925 21.213778849695892 14.217946443691654
Sb 17.897569874717192 15.126828092461713 13.07549065476616
Sb 9.889446555684172 18.050367135961626 17.633136066888813
Sb 18.050856128458697 15.533809828651803 16.333857330373533
Sb 14.835065289105561 16.622931665267558 16.353839539370526
Sb 15.168526576152699 13.052319239351558 15.07316061907364
Sb 10.062655817299175 15.262692866538462 18.35221370815947
Sb 11.180120752248897 11.597880496486388 16.21191249494768
Sb 19.113034906012356 18.271762908893418 16.77413116823814
Sb 20.88276857422439 15.874540132457556 15.901795973042448
Sb 15.387530394332599 21.041551923746148 16.72462996295138
Sb 13.320286696104644 19.072362172237106 16.149085292484607
Sb 13.873776625789944 10.603030674964213 15.93544434975279
Sb 12.252683490416212 19.303595002107322 18.81206623730265
Sb 17.499154810482136 12.966288770455797 17.53030728219605
Sb 13.062369866606703 15.001284741464744 18.14001409568988
Sb 14.2542886401571 10.9254024468206 18.829768436702405
Sb 17.123682829168096 19.632780611035432 18.5336257781039
Sb 15.527385945138231 13.472027495332819 19.374480603976323
Sb 11.61140224275515 12.098714918992371 18.906235879637975
Sb 16.000746915669275 16.995077921666006 18.981387868659517
Sb 13.37210588458182 17.066254363134565 20.20675134252414
