30
Energy = -117.58263128 eV
Sb 19.076431394587406 10.442172774229942 19.00957037815156
Sb 16.409046330749653 11.552206764296892 19.052840552481772
Sb 20.12649649051038 13.056051752151912 19.74644934604235
Sb 16.08808406316691 11.657498000699304 16.23437612565739
Sb 20.376338798922976 12.074895442503001 17.046597210470146
Sb 8.600615559961549 7.194685920077928 10.566755333956618
Sb 17.45127811481237 14.153015324215305 19.768280443983073
Sb 7.38815726856001 9.802547768937963 10.187629851082688
Sb 9.624394770011415 10.787540255001941 8.656083909602891
Sb 13.972007374559794 13.57294439549044 16.66462757382657
Sb 18.28269548915189 13.342329204914424 15.521483571045927
Sb 9.939456659224462 7.916972847271076 8.123660430150084
Sb 11.43495850917406 10.961435395362336 10.897682100703653
Sb 7.064983161967242 7.684145126427738 8.21866407345598
Sb 17.968844111259948 15.507558190218637 17.32588604167446
Sb 15.435499257135818 13.891469331549224 12.683167991817266
Sb 9.909366930716047 12.74787112451095 12.518368159519225
Sb 16.04440102906809 16.47276619689306 13.757117267957085
Sb 12.914834847437639 12.68403219639478 9.06284172483718
Sb 15.28655465245398 16.158450595231294 16.51058355774425
Sb 12.932154175112181 13.430874261560897 13.99345032175584
Sb 14.631931288342702 14.885441796464068 10.110389159193295
Sb 7.445619936407042 13.243859314824203 11.077670742710897
Sb 10.73115813876089 15.470662750276418 11.54501664741996
Sb 11.10305789864612 14.795621153583772 8.704769160310972
Sb 8.313895620862464 14.164659436810226 8.493673528839867
Sb 11.645158960844967 15.940957944091567 14.423168405559776
Sb 13.555763324977061 17.827841897968817 13.405993766160469
Sb 12.948054269629344 17.184923243096833 10.661687760787093
Sb 7.969096127319398 16.06490414927906 10.701849417435845
