34
Energy = -133.09163873 eV
Sb 10.620164952533104 17.552492346152604 13.257901409440327
Sb 11.366640627756398 17.401795758517718 16.04949456940846
Sb 14.705220951652702 17.453392171886332 12.5884304981278
Sb 15.833802488628914 16.109149746345434 14.913771215383099
Sb 9.047345039663997 16.030063449082412 15.087658528830675
Sb 16.3375545963034 16.520994518082514 10.378220666686435
Sb 12.55309062334172 15.527372630974963 12.577624818477247
Sb 13.419581709499607 15.396035837017754 16.509840359514584
Sb 15.094655494671041 11.994823333876182 16.712773075092517
Sb 17.34152632012105 11.903845544918498 14.91029446614244
Sb 18.093024596485815 14.55908143319672 11.644732305836737
Sb 12.97276670918898 13.00280052281261 14.897835791013208
Sb 15.854517331572781 13.738031633598405 13.251089541860699
Sb 9.338940079483827 13.078193023941193 14.554028005283582
Sb 11.852874599348304 15.104912185249576 9.80901733208157
Sb 14.53675013792946 14.930832785635314 8.723104052846788
Sb 13.057888292306181 10.120498690025334 15.902528991701802
Sb 6.501292306704873 13.002917218137299 15.145503067625734
Sb 17.673691494806423 12.365906433341461 9.737775970538703
Sb 14.879809084315115 12.486544146676017 10.148470405566574
Sb 13.939452867220895 10.483489443888635 13.145062712611962
Sb 16.568363630025004 9.449231561809743 13.604652681453482
Sb 9.609033438007337 10.043421433169543 15.030095236809245
Sb 8.943853829884585 13.421740234194129 11.74978242783003
Sb 11.697102293194646 12.507536825275368 11.252422492037573
Sb 17.63827040852023 9.695543505142687 10.93956084775496
Sb 6.749027394948487 10.14409315624482 15.530320690345512
Sb 5.609490158063081 11.161916084745876 13.122865434472029
Sb 14.130600892020702 10.69156660478498 8.061655781029664
Sb 9.715189198842769 9.293894372202825 12.381087937762569
Sb 12.943451703840179 8.439153072733538 11.371418165176674
Sb 7.715356385232618 10.915369355789291 11.164977957840026
Sb 15.320991576591549 8.532804311761533 9.569300446931711
Sb 11.558764240478938 10.160642081973593 9.496787569670126
