43
Energy = -166.79480211 eV
Sb 16.049469636973715 20.238398437473517 11.605411862695764
Sb 13.782303952615628 19.141998961863543 9.714659569394788
Sb 14.912563925640733 14.396769632482066 9.096105218579295
Sb 14.342651911671213 16.498285594587582 11.054814812784393
Sb 16.293273621643124 17.98971994120203 13.067141867262801
Sb 13.050550714252802 20.532146622514436 12.12674333057858
Sb 10.95109898775031 18.293576016621678 9.208937869394422
Sb 17.376684302588732 13.231251660378277 10.117691979686105
Sb 13.692738837984692 12.061024725493587 10.343114007583537
Sb 18.48785009714328 15.422373492112637 11.652685212319772
Sb 11.477511995922551 15.878753211671146 10.79739966006902
Sb 18.004824865183007 10.344966701325548 13.032217800230312
Sb 10.133057133499587 19.419016219333123 11.690395322952895
Sb 13.412984920245579 18.23961184290795 13.919233143350954
Sb 13.739472083937075 10.133325309737835 14.204568667711957
Sb 11.82930830921501 13.166228559522896 12.260267242237818
Sb 20.764183273530968 14.10142392260956 12.941706290229975
Sb 16.19991849236427 8.872032557397894 14.76668466752713
Sb 15.864498957490579 12.234713198357465 12.35835408666071
Sb 10.631023707031696 17.113689375670848 13.2609158946385
Sb 17.315434415276567 14.78056533128911 14.2565132518138
Sb 13.872446293273722 14.630513690698193 13.492278621040747
Sb 19.109832488416703 12.455029487351807 14.679775817678797
Sb 15.772878335689816 8.867850494468877 17.67865605614376
Sb 14.25795948086891 19.29519739591811 16.534191033659777
Sb 10.618120293954945 12.904062922670736 16.203568932246498
Sb 13.037466687918474 8.699859332463697 16.71194277517346
Sb 19.789682125226605 16.262820529553327 14.672778128952595
Sb 12.760424751542 14.8267792346048 16.184602004649154
Sb 10.714327244444746 16.72737365985536 16.89662940563147
Sb 16.35044880409116 13.429299487285965 17.498049969499146
Sb 15.55949537802421 16.68160374059288 17.020579018042042
Sb 19.102821043949312 13.16121387559476 18.25976422205253
Sb 13.075292611311207 11.559923610434732 16.92990080646979
Sb 12.303495055241516 18.500013828074458 18.531130079978904
Sb 10.153515876792008 14.482154141167243 18.64749017155009
Sb 16.005695314094616 11.278791048360008 19.395467611734002
Sb 20.236471971126655 15.692395472932704 17.455657491954646
Sb 14.33590803485433 16.704893189105025 19.629680547687308
Sb 12.578270712770323 14.482236311391677 20.24644871967511
Sb 17.290634816928154 14.77822174401442 19.920720312823303
Sb 18.023435687611155 17.23000776734761 18.53383118444348
Sb 13.18833267670861 11.708247548362143 19.849655158011714
