42
Energy = -161.43598437 eV
Sb 15.51179886756144 15.93813413222689 8.81254631198926
Sb 16.611801736872998 18.509968801516845 9.070464337994446
Sb 16.48473488623484 14.234268037562504 10.877674332164725
Sb 18.610495985657174 17.75911598166221 11.034438574995061
Sb 15.07570633144767 19.18739099307964 11.797545440153883
Sb 13.703283868168555 16.76306758878798 11.433196279576157
Sb 19.246330966009435 14.963296707735298 10.932088833912685
Sb 12.33141968635194 18.93182494477284 12.835687774864233
Sb 18.305015460453124 21.417682887637916 13.06223229526075
Sb 17.270223093205804 17.600727105573235 13.627816218037859
Sb 20.532089696504087 19.828756850426753 12.337640537014252
Sb 15.412138218928852 15.428990940552856 13.41516348053567
Sb 19.018176934625405 15.043352635741739 13.80752582548948
Sb 13.044567833894753 17.583340917922687 15.22129626012774
Sb 15.562581793766022 18.868715878785096 16.147985963915342
Sb 12.55257313196989 9.756107308770266 14.61250705894214
Sb 11.096184201867766 9.87724692546422 17.00677767319585
Sb 21.785372689711334 18.9298720030789 14.744009715876466
Sb 13.840312298973767 12.318084406803258 14.596759293201044
Sb 14.709258393077322 8.25545653570362 15.822180525992279
Sb 10.872716093165806 13.999253763760237 17.67782246534842
Sb 17.75143060682054 21.330157841980554 15.714368259944456
Sb 11.389529234642035 13.89862982121679 14.909992433402577
Sb 21.32818381833706 16.10750991239572 15.13985764143404
Sb 16.556384461931717 10.23683792662331 16.65985925867087
Sb 13.967653604560567 7.404385966421337 18.552718611467537
Sb 19.63746177298017 19.497318389469424 16.675683739363546
Sb 14.874787402141227 12.504653293536068 17.240549487840585
Sb 9.467080814580601 12.068196434343928 16.05271013036112
Sb 15.497248047708462 16.243028218261422 17.510161404826867
Sb 16.498677869379467 8.729869317374153 19.168161986695836
Sb 13.993727254559154 20.47603231220175 17.953434821180856
Sb 11.795035992754736 18.627356717299957 17.75947415130236
Sb 12.579596475017127 11.628755111625615 18.70553581504037
Sb 18.930487037607495 16.674320846087447 16.7890889592517
Sb 12.99688939851239 16.408834674835973 19.08998429857049
Sb 14.071932041988235 9.58115448617399 20.36264267042215
Sb 19.619130199138624 19.74448701126802 19.493737381514638
Sb 15.520274256579269 19.871232686107245 20.32601800150099
Sb 19.57486757310811 16.988408239123032 19.657508902235865
Sb 16.526891500654898 17.226717321214334 20.045600483297527
Sb 13.999805413743893 17.711315070068117 21.47340930828041
