42
Energy = -162.87557987 eV
Sb 13.800627173463699 18.72121519949088 9.816114986213467
Sb 11.1915764068789 17.863992933657762 10.121828079832303
Sb 13.893117329539614 14.657317977873229 11.241650399093992
Sb 15.151173471676787 16.27935589451337 9.214572839690925
Sb 11.211281880018491 14.975032149811113 10.228658601795184
Sb 17.40595334294233 17.506888984863487 10.539721860793689
Sb 18.49842817234512 10.983890037781752 11.667238974150848
Sb 17.284415915638018 13.504971070271456 11.82494906858104
Sb 15.764598374394575 10.105448390453674 11.42956739103309
Sb 14.34547022522448 19.257618574252625 13.116084783101902
Sb 19.28828784530754 15.619677008764738 11.757873291179617
Sb 11.111322660940022 17.436760050843876 13.209912638798752
Sb 18.211225740758497 10.18173315407352 14.736542315611608
Sb 13.832404960647082 16.380832636035677 13.571842769005547
Sb 9.717970618277201 14.92023321805422 12.793901029692607
Sb 16.141117372396312 8.426103440167273 13.77545804363501
Sb 17.064845364562746 19.42491870726472 14.17825570333991
Sb 14.486422449335643 13.627738303275335 15.404245343296214
Sb 17.040079848861392 16.68189492936333 13.27379074823789
Sb 13.8556694329748 11.744423516475328 12.949005159754531
Sb 17.4709113297228 13.00795323198015 14.840097372349831
Sb 8.244752032367222 12.828586447229474 15.677970504577349
Sb 20.20813636387561 14.166618171157953 14.900017001168445
Sb 10.85773949827357 18.516655836506086 15.972740893145895
Sb 16.92585708790162 18.85866629838175 17.053227429698943
Sb 16.762333830634333 15.96224220297868 16.74651481176561
Sb 19.724318933725407 15.954452839580133 17.099491770730065
Sb 12.9626814738299 20.4144847653089 15.466060968558716
Sb 10.460904833798793 11.005573511591738 15.569617158026256
Sb 11.386247275900367 13.69076694377247 14.877752312307956
Sb 16.998473449063773 10.035476046073477 17.492385427737442
Sb 13.518452562563487 9.341883178107706 14.619180574520664
Sb 14.34982634063058 11.057208497842648 16.771642333705454
Sb 12.992279107015401 16.7517021880549 16.90596948169046
Sb 9.723712934478206 14.917675423513245 16.905867363960304
Sb 20.530720988516727 13.25577932829398 17.62901539590042
Sb 14.17548268530908 19.226563367017423 17.801482412664207
Sb 17.700412657033837 12.729346225296867 17.950978975896124
Sb 11.729411493630048 11.043771625001165 18.15138997162765
Sb 12.743294252704956 15.744947767674033 19.58198694458458
Sb 10.832370111925224 13.599731071710863 19.214680232584588
Sb 15.22666709168319 14.410843776404313 18.74169155672691
