44
Energy = -171.19356204 eV
Sb 9.069900028601221 14.675616653315245 15.721660894023346
Sb 12.739066154499964 18.719781994344412 12.317110647397714
Sb 6.243790379732856 13.682861719210015 12.831486517054808
Sb 9.533007439291369 15.86309965424386 13.124092246942096
Sb 12.230658863400395 16.277428732812137 10.77731898071127
Sb 7.9072518981058595 12.188582599368278 14.677551690019607
Sb 11.59464264264903 17.281381420120283 14.58105756196345
Sb 15.176097210188317 17.24757600452723 12.940794692763975
Sb 6.9680376169833576 16.115799161096838 14.344123366158517
Sb 13.946451777404958 16.08323249544933 17.436187869670853
Sb 8.882651654622554 12.712718109068211 12.039573562836022
Sb 6.675920883227009 10.443126311197855 9.067493393861566
Sb 12.960594118071754 12.890685427985156 9.831919111746295
Sb 14.403615447839732 16.825831505070646 8.94669002682188
Sb 11.037555918549915 11.861391149247796 17.03447810894784
Sb 11.058141562951228 10.743296400532083 8.748994800737087
Sb 13.199884922423793 15.162393549700864 13.32872505274908
Sb 16.015327183953097 14.82902435832518 19.056010510045883
Sb 7.592386463449506 10.138051111257749 11.772353360374593
Sb 10.606250645040491 10.011589512889179 14.841837889902731
Sb 8.703038291854286 12.211894980159299 8.007148704401802
Sb 13.419453697527892 13.359609364632668 16.2710967402124
Sb 15.793155022187433 17.620932830146774 15.743073309912209
Sb 8.3129765178769 8.178869487971525 8.391758306342263
Sb 12.261095642013789 10.799345072235528 12.421825295541264
Sb 9.435666478949827 9.871772490672624 6.411762349578903
Sb 15.736590124291642 13.577976816505808 11.694702582887778
Sb 14.316975380037833 14.265198253731878 7.616804658965978
Sb 16.575264784984622 14.970773547927314 9.281788103442059
Sb 14.52742634398606 12.309127285022322 18.706837816291426
Sb 10.099991076411868 8.93737857273412 10.860641674106812
Sb 12.621179614753498 9.444265954547554 16.780358445462383
Sb 18.27467169219727 16.199614646171078 15.175044320773807
Sb 14.743888336396035 10.834515357705243 8.880969358101103
Sb 16.99420201161841 14.026371025453942 16.499091866898738
Sb 14.175299758904403 9.181910628355665 14.014382781867653
Sb 18.324564221578346 14.396031734844861 12.845729911055976
Sb 16.294708487340667 10.504957047118115 17.130323387783065
Sb 13.804165395724043 8.744334292963044 10.68319736218586
Sb 17.108907280209486 11.295488709554183 10.521153788445508
Sb 15.557843052621568 11.695693416979838 14.590670757749786
Sb 16.359752778740027 8.876249953511074 11.921614386956106
Sb 18.490358633488274 11.690046169523855 13.950747110298034
Sb 18.870406140203762 11.896988066653023 16.8226302708939
