48
Energy = -186.06698888 eV
Sb 14.594800118280038 13.766655661227151 8.194409407169037
Sb 16.356804497582672 11.651464736956456 7.494164013081091
Sb 14.70243326650493 13.092969222660056 11.149752723473654
Sb 17.343601055052968 16.84963672731322 10.549776889422324
Sb 17.37057208535774 12.581297174131869 10.117121214364884
Sb 17.309648593449797 14.367285468291454 7.735351042398752
Sb 15.196283926422614 15.70320433975672 12.350361533512615
Sb 12.633882603248502 17.076948009787632 12.229886246686926
Sb 18.409913286822235 19.13734309951031 12.024083815051112
Sb 18.33470641767803 14.791995624793781 12.284329585456424
Sb 16.12874140869282 18.817415371576693 13.809273012489053
Sb 18.664984724041066 10.652793071710857 12.110571176840763
Sb 21.18184473550133 14.523694552255693 12.187755768013284
Sb 13.016740236484523 17.380075515564325 15.085393160576798
Sb 16.206435307951683 11.101702752182689 13.386409600854616
Sb 20.880491704035286 11.941892744475933 13.533152108340508
Sb 19.78899184758113 18.221191207151886 14.424915467141702
Sb 21.99881244051882 16.392426511575536 14.288076264731128
Sb 13.191468517279436 14.455703287764234 15.045339681430097
Sb 17.552097893717846 16.36823531675363 14.70024062623954
Sb 16.383812567292008 19.599631732376352 16.633414707067825
Sb 18.911469666329424 20.84104911488373 17.26577805858774
Sb 10.792477125274653 15.763366479447761 14.172171589610972
Sb 19.169278963395953 13.384471768255189 15.32043996531975
Sb 16.467758251032382 22.368966024148122 17.431993532973745
Sb 15.952484749221409 13.893340733231774 17.169214083222755
Sb 21.47653028750072 16.172095512708168 17.17097839168415
Sb 12.137522966904678 12.884167785706758 17.344873506105813
Sb 13.439603400110466 19.58226025506742 18.87463928656661
Sb 17.19313558150934 11.476701709019954 16.080406628935897
Sb 18.666942064212265 17.131849294383613 17.654852894023538
Sb 12.099408981901554 16.57587407133027 18.192206622212286
Sb 9.341655064771533 16.235897375012097 17.23068689432607
Sb 20.795346328439727 13.399646343515691 17.67883488094923
Sb 19.345391390507483 19.236657133010297 19.640992479258415
Sb 15.218649123519409 21.656850815760855 19.92456567288266
Sb 14.39112449017995 12.51721327955578 19.156265644446147
Sb 18.325785111787624 14.518493122399894 18.84934959195318
Sb 17.250745286787822 20.21607787865515 21.369058108972023
Sb 9.726444841263747 13.83648443377538 18.766776169062492
Sb 10.157211330544937 18.593855986647466 18.90940807202102
Sb 15.548953311321338 16.886353111213808 19.59127619254438
Sb 17.375920938834803 15.361163460170934 21.463090969935603
Sb 11.457451796124106 15.157624798832662 20.676906061951396
Sb 14.53590982550924 14.64771043866753 21.15495616689768
Sb 12.848810760468988 19.372739793062063 21.623994271887618
Sb 15.574532182417933 17.982971984423596 22.19929883215997
Sb 10.43473769975375 17.71490392241815 21.635556140286283
