45
Energy = -174.57737224 eV
Sb 16.025251751595107 17.695201925798944 9.049703241139273
Sb 17.472395667367806 15.186774755836407 8.814502896716252
Sb 16.990746975557638 12.880345560478407 10.476887429522485
Sb 14.00362075065284 17.03717506541643 10.990215784028434
Sb 20.0530781408758 16.200428986142892 9.44810075619199
Sb 12.229475611122053 14.897103388697012 10.568751917417607
Sb 21.107263200732124 14.465823830985283 11.42777012436076
Sb 13.219714809763039 12.362555037468596 12.037228495203397
Sb 17.002463174847627 19.016129364022834 11.411261583149724
Sb 19.371930125464555 12.49113491961929 11.949921569126099
Sb 15.737769558294511 13.319634005710189 13.059706624330442
Sb 19.81419844700888 18.50348174051316 11.227325234209697
Sb 9.337328197587034 13.833024567274737 13.605370469116849
Sb 11.53397898946973 17.957964125712728 14.234163443720766
Sb 13.149561425629702 10.345769861829801 14.308621588128096
Sb 8.768637838176716 15.795210830257396 15.49213438544422
Sb 12.439361612297754 19.33942809414838 11.962434530557093
Sb 12.072022445610479 14.819036695688222 13.434878776694106
Sb 15.973427185443894 10.426136110292957 13.69077719311253
Sb 22.51547183766938 16.89964364441285 14.10763735756897
Sb 15.852538519064842 16.97004033745557 13.208876604705127
Sb 19.64615493503792 17.096462172295784 13.772773101208426
Sb 10.32248053916663 12.378170502693198 16.09771234906084
Sb 14.128317314266571 19.10461747935815 14.339073898088643
Sb 21.165830626054486 19.19417404260126 15.116666242400948
Sb 13.844851926520564 12.010111821550126 16.532125149670183
Sb 22.054791693899904 17.15850295954285 16.963363209452535
Sb 16.326517853704924 10.489627123710068 16.57428227911316
Sb 14.485877765158888 16.00052285754172 16.882082675092807
Sb 17.359291546943844 13.18719488087304 16.742493836520318
Sb 6.69914020142218 14.414302961824399 16.999424453068748
Sb 11.831208430504127 10.57659030668355 18.039615711659717
Sb 7.743628642055986 11.703889868716983 17.12896236063281
Sb 10.850910476848897 14.801675470526078 17.576200922639785
Sb 13.808689982976865 18.212972429583587 18.61624430695309
Sb 19.46367804157501 15.902190364664996 16.978935370691932
Sb 16.287728559339936 18.244729457488507 17.169777530612517
Sb 11.280841026626824 12.704365048698332 19.766637579065968
Sb 19.968310211291872 13.257566407923695 18.045591629491962
Sb 14.332293216065727 15.608035235890721 19.725896499955304
Sb 17.587919697500705 13.01207231022541 19.605763922794356
Sb 8.411435664680994 15.096231045116426 19.22322422552676
Sb 8.410634989350418 12.290953579902219 19.90404573087725
Sb 17.02794875111565 15.626090598884808 20.691333186756978
Sb 18.352854617018377 17.54848119930066 19.063076797578056
