45
Energy = -174.33079433 eV
Sb 12.44934747575377 8.035129273788693 12.159496456796989
Sb 15.795577402766698 16.747863616685517 10.351913870851526
Sb 17.526720254755183 11.070211894009027 9.539526782946478
Sb 10.154547712477749 9.734513696212911 11.77075511711319
Sb 19.345658305263616 18.29663201113269 12.271253449952036
Sb 14.812374378709704 10.319993541015625 10.093433532085722
Sb 18.59457519000601 16.115342772047793 10.515785892121583
Sb 16.90523397121381 19.673972324932457 11.523754172056073
Sb 15.596069689275193 13.144645027785085 10.164451906509335
Sb 13.024589481733573 18.246823301198827 12.644112481807294
Sb 10.65019670262769 8.53636337296557 14.33027907809648
Sb 14.961383253635075 9.393710146455405 12.8256404482352
Sb 10.382573733688867 17.25413128913955 13.310053866245138
Sb 17.35225469347143 12.160485109869414 12.203643131656065
Sb 17.19266641833381 22.225552420780467 13.122156481363243
Sb 11.613180479753419 11.18839050926644 13.807822925716412
Sb 17.8240490266969 14.835571242126349 15.01283097099429
Sb 15.001953758456416 16.06915665531974 12.945715281569154
Sb 19.320379001765893 14.237568207311718 12.580139020210876
Sb 17.067372531386777 18.098190483692623 14.002184447166828
Sb 14.738976642238287 20.87969548675014 13.993725837439621
Sb 17.22518484113774 20.627512251269927 15.469799078400829
Sb 11.79704935639855 14.90720819197719 14.082158484933302
Sb 12.809172828720186 21.329925715732998 16.17536724120242
Sb 17.78666712908386 17.514933513399896 17.4990027555127
Sb 14.899277305289745 11.939212756904826 14.334516490212291
Sb 20.005239774429562 16.004813348259155 16.54072700683201
Sb 12.085187719158421 18.50865668672932 15.389465559469281
Sb 18.93802373112488 12.369275976201266 16.035550610552214
Sb 19.912444782035088 13.765790940821743 18.42547037881376
Sb 16.602979166067673 10.672332154414201 16.391135956353963
Sb 14.458814549475177 19.396157355747512 17.562140893827124
Sb 13.557480018009674 15.746723450254319 16.37674018628948
Sb 10.27923552610293 13.007030454273174 15.67281392692746
Sb 13.015215754326967 12.80972562200361 16.624294747600334
Sb 12.102825068438861 18.680517847637795 19.138552445612305
Sb 15.812202570062098 15.476355584604534 19.023623425218087
Sb 16.14187517121285 12.336582843412721 18.650829541196217
Sb 11.76707521959908 15.81425135027936 18.66676277174403
Sb 18.191447784542913 14.827887857519068 20.512385773611687
Sb 14.41423806800109 19.85842970054586 20.416015053666182
Sb 18.63514824936934 17.71582807773673 20.235233225453218
Sb 13.463625478659894 14.489221573869596 20.581467317041998
Sb 15.892393780764893 17.529363714724756 21.197845373507196
Sb 13.384263270310743 11.89506789552661 19.316173851420768
