47
Energy = -182.24120108 eV
Sb 14.636835717289115 13.108582339267434 8.788256990038299
Sb 16.352336738469425 16.8735970218477 9.514768667827893
Sb 13.705296589040675 15.809762357662715 8.813120518183794
Sb 11.598570396083982 16.060453769236517 10.811892971623868
Sb 12.840719996029389 11.593056523518712 10.393184652671641
Sb 16.399641440154134 15.367890233713403 11.923817321557697
Sb 16.928028809788525 12.733276058986629 10.84584241670861
Sb 16.27232664004788 19.20303336032357 11.248285977391168
Sb 10.708773432405577 13.32927476928041 11.243489216454357
Sb 13.455761892735943 18.953283247050734 11.248988770145921
Sb 13.421811360614104 16.617057101709932 13.002461089568218
Sb 18.825654135059295 16.57499862582695 13.146081460522964
Sb 20.219125720528154 14.049323166362695 13.742562897271863
Sb 15.156332039733625 9.570238963466105 13.501826055664564
Sb 17.67665205614739 12.745805811873646 13.801830483957428
Sb 14.622000400849458 12.22252106086781 12.601440312737694
Sb 19.925164956402273 20.026828150672287 14.67102994158098
Sb 17.857380575975395 9.893106831054142 14.086242835903422
Sb 17.64311341687145 21.47280526616868 13.787725366030742
Sb 19.096900765741665 22.333121764015413 16.106052945726066
Sb 11.32883200630046 13.845042846705432 14.035570731189646
Sb 12.860303579353888 19.309934619449297 14.051358521081202
Sb 9.34235427270348 12.29614393726502 15.420915794057134
Sb 17.03745490049299 16.784770572133038 15.439898555955551
Sb 15.741544455952873 19.28707460759985 14.491259274243538
Sb 12.106046397932563 11.401302499839385 15.383392976102733
Sb 17.839014129205836 20.40003472145046 18.012796694123622
Sb 11.313350578333157 16.129639070957214 16.940295986262093
Sb 17.343497957415952 13.82338096648096 17.017367403842034
Sb 17.727809300895252 10.861225528313879 16.911239616937255
Sb 20.16321345795655 14.487800762049305 16.62903106042513
Sb 15.12837179564688 20.41618778766822 17.225318832472052
Sb 13.77858042853951 13.020791756844599 17.30711209899043
Sb 10.142469624756133 13.660881641013438 17.848284421706012
Sb 11.764676290111998 16.106186531535215 19.799386248967895
Sb 15.15727404862841 10.707047225650406 18.388407616940295
Sb 20.2765265489261 11.888685819830899 18.02825531573074
Sb 15.535990022721537 16.182207998223614 18.688913153903414
Sb 19.12974464315498 17.972049361199836 17.006117945396184
Sb 9.065726165966074 16.186486209797945 18.75531950933038
Sb 14.374636742646022 18.772655084769056 19.505162199206275
Sb 12.582921052025679 13.241713840249833 19.960054733680256
Sb 18.605616624924703 13.58696460822294 19.69640170602321
Sb 14.963306576424277 14.53103675287642 21.054395152448055
Sb 18.065681063796713 17.03623268851168 19.789902508091295
Sb 16.37077767662225 12.022160940567348 20.677114977986392
Sb 16.940233366180898 19.532725985471153 20.686206860921526
