47
Energy = -183.2318173 eV
Sb 14.077515313383131 15.431195817649286 8.68991056635877
Sb 15.031217354015876 10.725771858645178 10.214497698046568
Sb 15.724890493262299 13.687742888086337 10.425986069729053
Sb 11.611651822097407 15.089093849991864 10.211728393535097
Sb 10.504063493505491 17.339154460329574 11.701223626022175
Sb 12.31729114304682 11.46817292241104 10.91226678807086
Sb 15.874823244223906 17.232844884078233 9.901611034908433
Sb 18.94907117749374 16.874745828735215 11.809283318697716
Sb 19.67753422827272 13.798693226849116 13.50654529830025
Sb 12.182568572768163 10.012974440324689 13.44119819300399
Sb 14.933158710862546 17.701955783051936 12.551153147227055
Sb 21.291879623747004 16.22221206840632 13.506939742904947
Sb 13.383300425180796 13.856233123087456 12.130548317584845
Sb 12.542469075477616 19.289138641293807 12.136050770895729
Sb 10.308994255651825 15.717546657580009 14.093911741330011
Sb 16.669818277720093 10.993593097010942 12.58348040993211
Sb 17.563045272290434 15.73730183902566 14.11258189355639
Sb 13.042985176245534 15.690400617045299 15.05015133261422
Sb 10.14888409489013 11.766999668843958 14.742375044495745
Sb 14.464829089899421 11.5234660015974 14.408378757771723
Sb 20.22687013849113 12.356511748384655 15.934091388317862
Sb 18.99504770348775 19.697729461740124 12.385419999519042
Sb 16.174377383316642 20.299547080693856 12.21198775506213
Sb 12.167835145817014 13.085592018165968 16.398457149435302
Sb 17.347837610584996 12.250148396981235 16.25792000078971
Sb 11.564739204071422 19.86738111092959 14.753820878144037
Sb 15.891126537017424 21.82629566415792 14.694185750531634
Sb 19.81284447777608 19.678507944918245 15.152088040541058
Sb 15.697365395671865 8.934560447068993 14.517594472797766
Sb 19.67625783558781 16.878700975178912 15.79772021702591
Sb 17.49507785334221 20.450782626952236 16.666894101016446
Sb 11.103126066774049 17.437145326793047 16.27414735006068
Sb 15.780117542495189 18.328524949677107 15.752947622713066
Sb 9.991441280589743 10.4753431098613 17.359460991085903
Sb 12.789254163965571 10.046778059422667 16.756150521957707
Sb 15.457589191444065 16.02524056863354 17.53015568804711
Sb 13.915201739831245 20.444308273052656 16.32854754458922
Sb 18.9791153217411 13.104111234596752 18.440831823666187
Sb 17.074011528341256 9.519734691334854 17.045235571498054
Sb 17.983663271663854 15.757404749889437 18.938982656845017
Sb 10.205908367690755 13.229063081360499 18.497460064336913
Sb 14.546421670534775 16.759465603848355 20.179344948262955
Sb 11.859410080963597 15.769320261914858 20.00321138711624
Sb 14.799402929719582 10.061935218671861 18.834107647118284
Sb 14.5635521457061 12.962859796113682 18.68307241298359
Sb 16.105293773112535 14.38067312115736 20.759047438902797
Sb 12.28923964410883 13.005215652338212 20.509413280530364
