41
Energy = -159.95628035 eV
Sb 19.393897026800044 12.480010554118133 9.384207500772135
Sb 17.66415167562931 10.432064734993782 8.373267975884959
Sb 15.007682437600323 11.603740677736315 9.150131269903214
Sb 15.230831256851863 14.413096098243074 10.091500177713053
Sb 14.405338218599516 17.482444238401914 12.289823167864279
Sb 17.924550400656187 14.390543069196994 11.088120743523891
Sb 13.235393980408634 9.812995592154952 10.327101892181863
Sb 17.900409639313985 8.852806636483836 10.73547023624364
Sb 11.597574782024648 17.23805653438532 11.96524375911895
Sb 19.74460893717441 10.85375811061779 11.778184072484692
Sb 15.560990028205115 10.42048487942073 11.734122417791793
Sb 11.3123130302272 14.3738744919555 12.026690170573703
Sb 14.00499527997932 13.395566985768316 12.470253221006082
Sb 14.457495850933338 19.97401476142138 13.742610779835253
Sb 15.114601000272057 15.440254779708164 14.18348506971763
Sb 18.774714030572078 16.2828563864008 14.230767465062543
Sb 10.405013685619991 18.116598199855943 14.42815716081731
Sb 12.367844773588178 19.794325096773566 15.739214168481768
Sb 17.91402325387552 12.56387476334982 13.327235011262632
Sb 18.992515779109088 20.201823738734856 15.116230534894317
Sb 13.128804079015154 14.648640859315412 16.190862153233667
Sb 20.60809012571428 17.923558347201205 15.808614533994298
Sb 14.582117535693973 12.423981341005875 21.997226938876974
Sb 17.038362814839818 21.16273357698866 16.997340782322194
Sb 16.504316738002828 18.749921488732934 15.452938394493437
Sb 20.303312888865012 13.847687260174693 14.426511782936311
Sb 10.833905475078971 13.545832289163682 14.746152815935682
Sb 13.73883801619139 17.93202646608671 17.547599982294408
Sb 10.543817842196372 15.949331902528886 16.276426254052847
Sb 15.045516200336122 13.945519659434169 19.48132483295698
Sb 18.422983985266363 14.550104564451496 16.51557087991254
Sb 19.811871313727856 16.513376573780324 18.214102355735207
Sb 12.21402744980551 14.39200294881459 19.592723409619754
Sb 12.164987126421007 13.910006682549152 22.478178414133595
Sb 17.042929339305697 17.281135320788078 18.39667198707679
Sb 17.262835529135128 19.870938459835692 19.558507161977534
Sb 11.829325584457258 17.237485152217896 19.628788356556935
Sb 14.378751058272597 20.067449676055222 19.450139636849155
Sb 16.01197775233277 16.102880326913052 21.102004360901265
Sb 14.658021923866901 14.842884765779429 23.519197575578485
Sb 13.906719787012301 18.019769641440195 21.4777582284073
