47
Energy = -180.88060352 eV
Sb 14.115046094746871 16.062843171320754 8.909383409508145
Sb 9.947370241550361 15.609045744566478 9.868180771359205
Sb 15.502516077944914 13.116591023839765 10.327847358799668
Sb 11.727552323615601 17.60926522167534 8.811304298183375
Sb 12.572504168015893 11.791816162329388 9.865475560405644
Sb 11.535363900984033 13.747563610599586 11.687695801508152
Sb 16.171545279634227 17.432805252198545 10.389719662437848
Sb 18.13896903115898 13.511106741848979 11.837239266333102
Sb 14.304404244112352 15.371026723486251 11.703817495896608
Sb 8.480927775708581 17.30612744988677 11.576636884889309
Sb 14.847118518758304 19.447331844370296 11.86471297223813
Sb 12.241549695120142 19.678437670736113 10.737262201657192
Sb 18.056461659672102 16.40733933346496 13.287835614557478
Sb 10.396716831842905 19.018977895411815 12.856488199286453
Sb 14.184287874078143 11.455059911609574 12.248004939587197
Sb 8.986208174664105 15.344959800887782 13.943098994501051
Sb 19.036116994840675 10.757466965379054 12.495075168696586
Sb 16.191959683224926 9.617056535194495 13.313868723660898
Sb 11.640416047729413 16.66072572080183 13.975688507946304
Sb 17.104749235769905 12.335632664849328 14.259598243934718
Sb 9.391354633593007 12.870441713837643 15.891058236314784
Sb 14.347127292559287 18.474000474993947 14.797975514253823
Sb 20.00927968895542 16.930469243092993 15.268720613027545
Sb 19.873457515465713 11.729167076422602 15.06954041498693
Sb 15.90935976176302 15.942267875671556 15.217074276407718
Sb 17.72316258248183 17.553010374374065 16.850082675880607
Sb 11.378692061119692 14.709460527708586 16.759593132956553
Sb 16.434010478727846 20.071961503723163 16.090814529000316
Sb 9.7557940733487 17.113864977593227 16.130623288144953
Sb 11.1985687622102 11.697886570734024 14.104935053107178
Sb 12.747971975683381 18.508622737804952 17.35896279374138
Sb 21.494662968658954 12.272237024093547 18.80132926698693
Sb 14.02395479392128 9.918849834200902 15.400944189155267
Sb 13.693395557818933 12.850252189779843 15.140041561939086
Sb 20.30767550642384 14.267177990401798 16.907804137819763
Sb 12.375438694046702 14.353549744765571 19.484918138845746
Sb 18.118130160149367 17.275558600662368 19.65809357621184
Sb 17.860273709998456 10.973028337159821 17.485588600168594
Sb 14.826239876091122 20.210432167107783 18.47958335531136
Sb 20.778023018535556 15.003572256320437 19.689951004069794
Sb 19.163377318472868 11.24083021412877 20.042938101200832
Sb 17.43416792125485 13.950883481703462 17.58793848993606
Sb 14.452440299731258 12.851321692092506 18.08981094150006
Sb 15.073932413896497 10.016017125756182 18.067882489560382
Sb 18.128301045056137 14.079656909389582 20.403673923559882
Sb 14.286523678881055 16.275631705317902 18.372490983040628
Sb 15.488327484989242 18.034095333711747 20.344123764490977
