46
Energy = -178.47348243 eV
Sb 7.213412929719942 10.588087338308148 15.225459524908977
Sb 9.375924376883512 9.879097744982401 17.06548815865984
Sb 9.296059653177181 12.522875302722754 15.831586911380624
Sb 7.294860201897244 12.321769797699995 12.36068143906414
Sb 5.912607664132994 9.302691277924742 10.982465337156269
Sb 7.883143990790819 8.716656164830814 13.103759668442612
Sb 10.732596707627248 7.72176521782032 15.735387300019005
Sb 8.585771633087973 14.9441275904938 12.571411167070597
Sb 4.721726711496708 11.933364066803142 11.14104628738977
Sb 13.360985820768631 14.761669317112023 17.421146293439847
Sb 12.586710646942905 11.188023412371082 17.37350846399706
Sb 11.545502040510474 15.686367770732927 15.330079682767364
Sb 10.061511290745033 10.238431519472945 12.002387863002072
Sb 9.337830793506884 14.334224769947472 9.82178516818505
Sb 10.915002770626753 13.407285257583991 13.54157759572986
Sb 13.33468844221341 11.006487279184896 14.4919266014124
Sb 10.202215321580146 8.44234177955178 9.747455270737257
Sb 12.062369600731635 8.668603242898588 13.375372191517664
Sb 10.8952154673539 9.969571749785732 7.317731652421617
Sb 13.03364078877186 8.321145498117293 17.4418427129109
Sb 15.18773109916484 16.96365977261664 16.689690720684496
Sb 11.604202501450088 17.345233243863685 11.35433279141305
Sb 7.096908225583219 11.534238218985275 9.5616897492594
Sb 12.627767456023621 11.522233745925156 9.355221550229592
Sb 12.196118584362933 14.580717882578844 10.350912331824421
Sb 15.498748544715408 11.058895991165446 17.821784040756214
Sb 12.828537366803248 7.298408948008897 10.144363251338374
Sb 9.870719215040042 17.07563542961249 9.005377429713116
Sb 15.299585418933862 13.206842327367813 15.912319489356676
Sb 17.38261581935557 15.168072495359526 16.145801276592714
Sb 15.210922770519481 9.106953455424046 15.66632482531908
Sb 15.19568703186854 11.630555915563592 11.654555708869452
Sb 11.68102350079003 12.767929527067023 7.05135862560241
Sb 13.713366820973254 17.230574551761098 14.154518278540955
Sb 14.88717922280686 15.188089795474294 12.461436085473338
Sb 15.27657783178288 8.795438613363263 10.840629762439972
Sb 17.417185083076614 11.957660143496978 13.497901395103248
Sb 13.266792983844548 8.16210570079063 7.366948930620345
Sb 12.271367080781499 15.933592607614262 7.779818566831533
Sb 15.070337248181087 10.205172744027458 8.350790019243753
Sb 17.66759797814622 14.866535415833905 13.207967867432565
Sb 13.489884419916846 18.13874584708095 9.319719963781697
Sb 17.96074149433094 11.262836190891965 10.702024434031923
Sb 18.344257298259066 14.044693765851695 10.048089163600253
Sb 15.902733522041997 17.0103424703464 10.419295888321752
Sb 15.766036035113537 14.389576994083725 9.20928035246782
