44
Energy = -171.35362007 eV
Sb 12.37681215758085 10.966188030425984 18.67184256111134
Sb 12.869031768119 13.236780996405871 16.959001337499732
Sb 15.286240698262805 11.251818793883825 18.46339074053654
Sb 10.753393526441513 15.116635324573302 16.17334632278179
Sb 9.159223201348217 10.37169088818347 16.97104648361164
Sb 14.566258434203057 14.01096624750471 19.157424848928517
Sb 11.681928846387137 9.124929985403766 16.54667943230956
Sb 9.76605397329755 12.625406892533972 14.922024795991332
Sb 8.62975877982769 15.931748736727167 12.413187715942644
Sb 16.463982004546526 15.640027964684956 17.680532199419776
Sb 15.390440932244045 11.835499267948693 15.565545334112187
Sb 7.9802721505703635 9.223738092701023 14.628169577741563
Sb 13.039543465086304 15.246952939664734 14.304982489509914
Sb 6.990391728519364 11.93608353658709 14.297887555398189
Sb 12.08130382930328 10.784980513580463 14.190602551133415
Sb 14.16633654019964 16.938005575573676 16.440083551287227
Sb 17.65730292644969 13.21471947991538 16.627251096599657
Sb 6.124719385572132 14.711970656196769 11.705993781707308
Sb 7.689033367408491 16.040178003618333 9.683411354951552
Sb 10.545918245826126 13.810754638890623 12.311379226347901
Sb 19.066553898430417 16.95384900943066 15.144462700719492
Sb 13.007585585317688 17.793330566851964 12.81522513652227
Sb 15.33412040609126 18.601329281248418 14.355979934327568
Sb 20.410223276858805 17.226893985339686 12.578171229259135
Sb 16.675263362560155 16.140684507078976 13.723681529305948
Sb 10.166864412608293 9.324853664923438 12.730257045401405
Sb 15.215230445819069 12.94749376914322 12.388454610472794
Sb 11.597156949391309 16.431921795798228 9.818608636915325
Sb 6.710698068633182 11.91721076303031 11.454969045046877
Sb 14.389543745883017 17.20686762730751 10.315815016085804
Sb 16.930943190363454 9.430642598795867 14.108771881652931
Sb 19.799707669196913 14.191667857954739 14.900108244177568
Sb 8.815175288781598 13.805260343109888 8.304402516947272
Sb 12.526434016915555 13.663180224554306 9.723296918602566
Sb 17.836689309920775 11.629581670980397 12.391872581496715
Sb 14.464720953946781 8.706677050693685 12.81599611897979
Sb 17.98704041697786 16.492700701807756 11.174978513082907
Sb 9.445590034174321 11.843650472422725 10.56240431637682
Sb 15.34650328883151 14.481514656128029 9.879993697501444
Sb 11.353667216206837 14.887653312591803 7.399643959709564
Sb 14.355750017494566 10.700376105939046 10.72620531799199
Sb 19.768241160628275 14.374893814694845 11.991755320056935
Sb 17.0039561469585 7.773764291792531 11.593083768976435
Sb 17.13072417468907 10.152745047185954 9.993660696312055
