46
Energy = -178.87572483 eV
Sb 13.76840283230269 13.681340909749174 7.90520415328035
Sb 9.592887790933787 13.426104874590038 5.679767902883502
Sb 9.790971429772133 15.294908442322809 7.620019560935056
Sb 12.529562408173236 11.045903957480123 7.78115405213882
Sb 9.689180917167953 10.963913971070832 7.115493150713788
Sb 15.314008729703815 16.541209063751268 9.247595682111761
Sb 16.28373763646035 12.442768615014085 8.770564840933059
Sb 7.985952396016797 12.024579767439821 9.194375867458392
Sb 17.501398263870428 14.776845494322055 9.890074369262395
Sb 11.721195615263534 17.120019760225752 9.784068774698428
Sb 10.467004231295071 8.471245193489871 10.366630350134423
Sb 16.509273925538903 10.785497910076444 11.398960518904126
Sb 13.385890514208532 14.846903111877946 10.555772872963242
Sb 19.022831069869657 12.35673399962054 12.342963829526306
Sb 14.549570127625538 8.950322363612297 10.095850698469103
Sb 12.786386546752322 19.34321381992495 11.368239094083647
Sb 8.070575235360788 9.888565284257483 11.161856679835351
Sb 12.31832377075355 10.713293422661412 10.607621647182386
Sb 9.257424574267151 16.30984547821766 11.047197770002997
Sb 10.184074807134381 13.720125220553163 10.022745221643005
Sb 15.592168848051262 18.862180004883427 10.959242140591615
Sb 13.988289505815036 7.225550917355799 12.319387628100069
Sb 17.286904063463663 14.570604002138387 12.767051669703708
Sb 15.440636453516689 12.444094748969034 13.632512219731876
Sb 6.916024734526327 12.992688929991868 13.721922371254667
Sb 9.403511326750372 11.75613393106343 12.952398606217288
Sb 8.09495234573011 15.131625481497494 15.279748538275632
Sb 9.558030173918743 17.143236256593536 13.770896839881473
Sb 14.456520918436539 18.587892143455505 13.592281002745375
Sb 17.50668975944766 8.776499347284895 13.51401574070508
Sb 11.500813454326133 8.471607238544212 13.083133634314617
Sb 14.821203771047344 9.032672998285571 14.414838818946967
Sb 13.93145867544802 15.79102412668987 13.881814119214123
Sb 17.907119327432923 11.324491283331364 14.774884026015814
Sb 11.321004609407472 6.266652026231343 14.952269777571969
Sb 15.739128798636976 15.44613527730951 16.180611955583363
Sb 8.113568377707791 10.945024146709498 15.427169654355767
Sb 10.63216757512274 13.847771638878594 15.271944765769009
Sb 14.662945711645827 12.851907084657595 16.816361026410924
Sb 11.768273588150448 16.46932468033916 15.690462546042175
Sb 11.788981126308412 10.348900628397361 16.174311041820726
Sb 13.95502747316918 6.858059544287142 16.14927677711446
Sb 10.17624941833992 8.062789409343148 16.934866283101723
Sb 13.520395011581437 15.043658292759357 17.985746663120075
Sb 12.742819033344366 8.546094504682161 18.20741976313246
Sb 9.894249810760817 12.140822640389853 17.46065409014655
