42
Energy = -162.11340033 eV
Sb 16.17999472383536 13.457741888189583 7.861146739040158
Sb 14.038112083579563 12.115346165550084 8.89383290469273
Sb 12.495697391995149 15.772370816562004 10.577389037799664
Sb 10.35807448225288 15.387065068483775 12.464169988857623
Sb 11.33954050785807 13.13573145636604 10.81090714365825
Sb 17.12996577032226 13.694573320860716 10.558883495990784
Sb 15.893821626852182 11.075251473024696 10.801669859561436
Sb 12.86175598998509 21.088686940451264 12.798211225256912
Sb 19.97233662659824 13.050954918570957 11.259431226529244
Sb 12.888740496963715 20.35855128950169 15.643390448539687
Sb 18.814544564635042 10.957855727329584 12.861801905221855
Sb 14.765078073365228 14.967819752861653 12.166009161661638
Sb 18.569732073564055 16.95728298558021 12.816844532728155
Sb 12.299688621257982 14.8113688436487 14.551501453568148
Sb 12.440511784829967 18.376022493913897 13.626796845331603
Sb 12.08492724491577 12.140565663231856 13.44021620839903
Sb 14.724617447942695 10.900536671872304 13.4792197383079
Sb 15.780049154455764 17.479361274133733 12.70773624861522
Sb 10.447027249274509 20.395575171219598 14.174206957138932
Sb 20.20871255800873 12.088210124599 15.13751761332844
Sb 16.84099935654353 12.866458152374845 13.945522300760043
Sb 20.271310534378575 14.626825541918159 13.68162328895296
Sb 14.500330336372329 13.080110277401385 16.715764170598604
Sb 18.124737341921552 18.862138639556232 14.98692336881451
Sb 20.145290325509766 18.100179022754947 16.913098434023812
Sb 9.959597219152583 14.351564534747151 16.28781015871308
Sb 16.1793680207327 16.983638112509112 16.084760733173713
Sb 9.407637201406473 17.166163364664335 16.38355443921725
Sb 18.659893566339502 15.550706183776136 16.773271201012612
Sb 17.744899438077898 12.460623745270178 16.717366913334413
Sb 12.222706890894692 11.638570181101139 17.796102963029
Sb 15.61191581964216 10.376333237093691 16.819918400209033
Sb 11.155384912134195 14.161096936446228 18.935838471691802
Sb 11.390182706717525 18.28894946225709 17.879759256649244
Sb 18.94465440000296 15.810464760452117 19.60887498259504
Sb 15.93738022312771 18.818222435003257 18.315363993360858
Sb 14.369469717667574 10.535708863806567 19.486435249130615
Sb 18.62569393429917 18.652886565408032 19.335857558716413
Sb 14.64791861146117 17.176394212914985 20.30303907243239
Sb 13.154257891502198 16.04285612814878 18.029598379014836
Sb 16.534788975635507 15.089571642415331 20.988764303262023
Sb 14.55329701841684 13.424308868456821 19.654512541508492
