48
Energy = -186.93960388 eV
Sb 17.802208546171418 15.540932043731035 9.444557524222565
Sb 9.262196310368273 16.67029547410537 10.40808885228284
Sb 14.50324539898797 13.462901923248891 10.194139809095
Sb 20.03152597305352 17.028777704481946 10.586468426908437
Sb 10.204829339632154 14.214721747417213 11.704339248171511
Sb 16.768916070479502 14.243326701120667 11.877879712975465
Sb 16.02505569276724 17.6492135773882 10.206517921565668
Sb 11.992456554309543 17.58865478353063 10.317713104868295
Sb 18.34613544372772 19.400585326052244 10.388149312385547
Sb 18.18670591413622 11.91495590709871 12.812522589247353
Sb 10.0389582834775 15.72904210284664 14.209875913625925
Sb 19.44021038026385 16.148642559965705 13.291050731781581
Sb 10.397646665002037 18.180827096844137 12.650619845022836
Sb 12.905240305865437 15.269518985364096 11.787474469144481
Sb 13.543354515918692 11.2592971428108 11.786279638636532
Sb 16.82304206702734 17.347817246249726 13.083056843826917
Sb 20.363069834472316 14.484543248549985 16.01315586037348
Sb 11.831537557261598 12.154923623289218 13.947823637672606
Sb 15.974183124945966 10.032230099485524 12.6437031405984
Sb 13.353019871702333 18.33738097548053 14.60047422078619
Sb 12.684876084623347 14.684830545307864 15.141001849303052
Sb 17.730539572378703 13.436730463623045 15.220347263420033
Sb 11.414747537987084 17.880594267369467 16.65397594855657
Sb 20.144462975960007 18.822339258828585 14.308578910781502
Sb 14.99809084013695 8.908603693805937 15.115696409849452
Sb 17.809749108874943 20.095906995482046 13.189416582966103
Sb 13.549296585650898 21.19480676819789 15.20839459418994
Sb 20.537020384421265 14.422138492399977 18.922384253359645
Sb 11.146024918803008 20.72109940934736 16.804330426713484
Sb 15.636879666489081 16.810771373496138 15.687649043670516
Sb 13.01403901611001 10.71083564422459 16.1287091870169
Sb 14.977068479570498 12.669871718182868 17.039716647145298
Sb 16.912447952459043 10.515267108919309 16.73597903812562
Sb 18.55865602139875 16.078760237970062 17.58218107234302
Sb 16.65330178208935 19.418903631139326 16.478158079624702
Sb 13.639087312116875 21.478243102837535 18.070648657930782
Sb 15.175882310484228 19.273758136860316 18.94972176510607
Sb 11.73410024421571 14.407521725357181 17.95377464030016
Sb 19.429703459073963 18.78649003777625 17.147383140116833
Sb 13.526586066505876 16.722035943690745 18.617817002013464
Sb 13.127233053821863 12.267360931478265 19.231594299017956
Sb 18.44460461875926 12.410418663856259 18.819177037628847
Sb 15.814792266234253 15.698848418039741 20.302451638422536
Sb 17.11565808027962 11.46739452735395 21.22082087707295
Sb 14.129066563093508 13.78063052256138 21.52664435982796
Sb 16.721579923310944 9.22849880345555 19.447769934826894
Sb 13.344969818027163 16.55945205719564 21.495953698294443
Sb 19.368898606129473 10.022200350758125 20.178733937760455
