48
Energy = -184.71630162 eV
Sb 15.515170772127 16.37551665302529 10.005746466958097
Sb 14.362173977846838 10.256772551179836 11.154479744184583
Sb 15.990821028094352 13.64166789238838 10.826130667622177
Sb 18.62750457111739 13.250119273639445 11.900031389679452
Sb 12.76130467939994 16.371066135157097 10.979112841121033
Sb 16.223383861333172 17.689216903372554 12.555826246869126
Sb 14.66960402900303 8.113275897117342 13.12034530489154
Sb 12.86187969175005 12.020517514162936 12.952047509693141
Sb 15.71099416487343 20.606302487931956 12.513123389225886
Sb 11.941164520205438 19.094103820422998 12.699503618698671
Sb 11.283877675261122 13.933890659286304 11.446362064960995
Sb 16.90264223378784 9.999441738212958 12.476663129274447
Sb 13.292352077140125 21.25998601241307 14.023388404583544
Sb 15.002000063804298 13.870782595558243 13.551301235396137
Sb 17.538860191660504 18.03196327600932 15.60640185007659
Sb 13.787076780848952 9.887710993505825 15.209440979933644
Sb 13.60828263201951 16.959194982166743 13.689656601731034
Sb 10.187407356400305 14.807655181915624 14.041794176687517
Sb 19.568587324890984 22.332870222013916 14.921972809029104
Sb 18.251019698218578 14.968798246248449 14.182593669070384
Sb 16.770087979959005 21.836412220207237 14.921267467519328
Sb 19.582053670147744 19.159276764711556 13.913471746232716
Sb 20.737525529272496 16.434046193176133 14.087549569160238
Sb 10.15346873068224 17.743088136571192 14.566468901745385
Sb 11.228923871936102 9.258217857291305 16.35825043958289
Sb 20.29410445505714 18.10398397509311 16.47695713043894
Sb 19.033627375217343 12.629232373121065 15.698613332890854
Sb 16.473561237908957 20.122137419265492 17.35476216532744
Sb 16.42818214528571 11.657644607735422 14.826554306586958
Sb 13.719628866308039 8.625728529692202 17.77545262647577
Sb 19.28193663812058 21.245778699549845 17.47840652773182
Sb 12.313239263148123 13.821155493511068 15.79119015647521
Sb 11.530459237660041 18.268802541600568 17.06307339789997
Sb 11.075373767203622 11.877733001864858 17.644148735307134
Sb 16.028032820891617 16.949659935179625 19.38276282275095
Sb 17.934106855841776 12.813079233569058 18.468241911832134
Sb 15.198979270499942 13.090558985602355 17.589718246993296
Sb 13.521499454766744 20.318708547576236 16.707946136946926
Sb 21.728527872205085 19.09650002821918 19.797164843721855
Sb 13.55721050543656 11.223605719292657 19.099962031314302
Sb 11.724096559502625 15.52282133241765 18.045704256834192
Sb 20.297044293591302 21.614659318216116 20.206509438734614
Sb 14.113861588889526 14.797053981721339 19.64821126321906
Sb 18.528965047186524 15.628328171508661 18.816858983430112
Sb 18.830341607534745 19.14338661279494 19.950931410969964
Sb 17.55143582508921 15.729280666855951 21.54138768515763
Sb 21.52735542674618 17.647038599974834 22.276998948651567
Sb 18.754686885774557 18.175652129597477 22.659937528026063
