48
Energy = -186.14484004 eV
Sb 17.054034533389295 16.583324449883897 11.19542102653579
Sb 12.161349851177794 12.64891550927339 10.848366951493988
Sb 14.232961894587563 16.642651326163406 10.790834880096577
Sb 14.600831829226323 13.90329235230485 11.738441086069384
Sb 17.338850115158515 19.362229519419824 11.986310708470947
Sb 13.914987082293408 10.437704064119531 10.180962494371991
Sb 12.946802621255005 18.61656688837095 12.526833804838919
Sb 20.152556825797767 15.830607046661745 12.705558727932772
Sb 17.510425159274533 14.922719362918865 13.603404998651087
Sb 11.181400373341017 11.070930100938199 13.083040935117136
Sb 15.131886567190563 20.058926080762674 13.594177117933318
Sb 22.245376103618696 14.207586425775753 13.91909445262525
Sb 12.729083190402982 8.753570132979762 12.263201084355668
Sb 16.45717539791871 10.434557016082211 11.658354368962383
Sb 19.594925139627364 20.26553216615358 13.604583112486333
Sb 18.004484204536936 12.05597434781099 13.48444654571956
Sb 20.38033292581868 17.72574280433614 14.821638049195721
Sb 13.446912376094927 14.591864293917967 14.285411720481621
Sb 23.13509974227771 16.730172554499347 15.035767346482032
Sb 12.534577721073074 17.71391157751976 15.311480852562065
Sb 15.273095065179467 8.74367708159697 13.664649738868265
Sb 20.818985503695586 12.918491755801012 16.071783698873165
Sb 12.440272360831665 12.163531435741259 15.419810879639018
Sb 15.791939697923329 21.224836762360038 16.708474146873343
Sb 8.93717847695908 17.869996568025577 16.879179529158467
Sb 15.299578491757764 18.31119816335931 16.161114630680235
Sb 15.638606684019525 14.806765472289174 16.153252678709972
Sb 11.044263438614273 19.793743516228915 16.699292887651445
Sb 10.484421913601484 15.460028646781907 16.491731335641337
Sb 18.317711218528405 19.923701529540107 16.290657270919674
Sb 14.585344301362372 10.319411135996777 15.945424850279759
Sb 22.041250026378346 16.35192838444596 17.685115238795547
Sb 19.39697404784762 15.30937510268963 16.979854166490814
Sb 14.340285351216776 17.512487359251427 18.892508691209137
Sb 22.509142052613683 13.596655480770616 18.361824839076785
Sb 18.0360864449536 21.902331479051995 18.423996305115345
Sb 16.83741858981726 12.092304362160522 16.140623748194635
Sb 12.904589919549004 15.169179339878712 18.113657690945946
Sb 17.981595339509756 17.63165394045558 19.098242393471292
Sb 19.880031937656167 14.049754179488684 19.587761629089457
Sb 19.65267433507769 16.510706500291832 21.183615234439543
Sb 8.271217264188623 17.455359389589177 19.6284215460074
Sb 18.175118302821183 20.048322306876067 20.651145503812014
Sb 8.897354612085646 14.679745124680169 18.976002931155676
Sb 12.330948479486784 19.47469528326353 19.29268546166988
Sb 11.299716948590197 14.926881717008552 20.552809949265033
Sb 20.57975808481631 18.75320663441108 19.601535243755627
Sb 10.790407672251831 17.75327354346597 21.017517731223123
