47
Energy = -182.66972625 eV
Sb 8.049563996813353 16.193031494295976 10.607794481357786
Sb 16.88609195646512 18.201243878173784 11.103324707286802
Sb 18.16275539909809 15.585169192076952 11.023731808817358
Sb 14.480484018655764 14.094229243673778 11.544171716191554
Sb 8.521543784550369 18.857636809160745 11.647311233067324
Sb 6.378484418296062 15.748830866538935 12.917970591719625
Sb 14.181546509137254 17.18042668425673 10.843304027223915
Sb 9.08184682031562 14.504318441475231 12.696474912356384
Sb 16.7596772219483 14.56235167756296 13.31706802379548
Sb 20.445744033979828 16.16036259480077 12.723400321579394
Sb 20.770746582219736 13.35567454905689 13.489253585168697
Sb 7.5116631534054426 18.06739798052696 14.232621851163966
Sb 14.524662661165639 20.496032043535905 14.004044414880045
Sb 15.244267986024969 17.732898230819732 13.435147510160416
Sb 11.17966087912636 18.028778225924814 12.463589975629045
Sb 18.247073215005365 12.171300296814412 12.735729805356579
Sb 20.983567745050138 19.18267041652769 15.733267274780626
Sb 13.47873661472098 11.398230184470727 12.47189503206424
Sb 9.979568679618309 16.512366785852016 14.604267839084867
Sb 18.327535778208127 20.11351142061092 15.194627674314807
Sb 17.51276121812632 10.369574537181613 14.836354229177504
Sb 21.490735931725858 12.503823450924589 16.222605556757625
Sb 11.632393373716821 20.549058751465108 13.797153483931918
Sb 18.927063224196655 17.249779302453494 14.966186308190895
Sb 14.539066259603105 13.85701014705493 15.727536354486105
Sb 14.652657065621803 11.020998276147399 15.10787403665739
Sb 19.64294838195084 10.449824720457192 16.914629208480974
Sb 12.35225152939846 13.8266761936938 13.448330766877039
Sb 21.010534787416425 18.37307382954027 18.503382908257837
Sb 21.804019917596403 14.674757470025991 18.07838118319291
Sb 19.323585226272538 16.143540448114873 17.82389734301827
Sb 16.769380815703222 19.772743354480948 17.59572890020827
Sb 17.185387127449694 13.540955290581042 17.1764395709428
Sb 12.657286211879663 13.313463016850054 17.86099138554977
Sb 12.139769711288839 16.09478837736374 18.664791750680312
Sb 12.880502968474138 19.94300014943401 16.33016058381167
Sb 13.070489456774018 17.07163795241322 16.05487970190089
Sb 16.197473381647576 11.015702594651016 18.161510321968024
Sb 18.686771183548295 19.48275462010266 19.7643668388452
Sb 18.686910961512037 10.574480998934673 19.69227770966864
Sb 14.256130552987432 12.254575470078153 19.987457776386105
Sb 20.587176054956615 14.835394248188718 20.762231014479298
Sb 18.250391584600315 16.694735552923227 20.641081994037293
Sb 18.559948454644562 12.906224564890385 21.308227011330114
Sb 14.720348241489193 16.83257596625078 19.732213698185404
Sb 16.247473492461832 14.325477555760589 19.777039396057088
Sb 15.866175698152016 17.02176641088073 17.120128447921765
