41
Energy = -158.29771233 eV
Sb 12.344355846817463 12.691672430836787 8.261053291826501
Sb 15.444799546434215 16.243831237647285 8.976001355040529
Sb 17.006729515453863 13.661359300841374 9.453319248305379
Sb 13.01969884132358 15.02412459582799 9.76873711746717
Sb 14.987522947630906 11.661627144965635 8.974057962344016
Sb 17.852484015686752 11.119870950634402 11.204538074206601
Sb 10.971741689828058 15.92224010441471 11.647904179698548
Sb 13.21955653081935 12.451974573863236 11.05229033144361
Sb 14.10800646623231 18.85755547187364 11.531788086170232
Sb 16.098881995500943 15.27478164355961 11.687022239330581
Sb 18.97319947892884 15.640228543653057 11.858667112951078
Sb 13.170515174635796 21.370686451706415 12.71263193796915
Sb 16.423510047882466 12.321167630802506 13.360355869124733
Sb 12.755594534020855 15.075634507710555 13.62866871890571
Sb 19.25548503189149 12.910120612714046 12.937555197134845
Sb 11.276181516981426 19.102935519900804 11.982212720267992
Sb 12.994812340709508 18.096943793314672 14.094114400691758
Sb 16.988320255495246 18.42150922095138 13.46399665684569
Sb 19.20957648139035 16.897341056782906 14.476414066483239
Sb 19.152550185673483 11.791502066565538 16.15639641132369
Sb 16.60227935662869 20.251085290077693 15.677588893605066
Sb 16.484479167935138 10.706697292045103 15.822751979452937
Sb 16.539270196558466 16.06946961686065 15.154703529897253
Sb 13.761257504101698 20.709237394034822 15.410329837946891
Sb 10.88776917080354 14.755742671409 15.824771008804221
Sb 12.201933636874667 12.144760285455877 15.978526687126605
Sb 15.48014479917378 17.9965123760722 17.0915609410271
Sb 20.21305396986542 12.090262088475004 18.90197935389851
Sb 12.87090821030143 15.790295034552589 17.6460148800353
Sb 18.56073788268473 14.190320905687711 17.81215790696037
Sb 14.874090668140303 12.912208550981873 16.92192882743418
Sb 11.79767676983845 17.492408292478263 19.727854845567617
Sb 10.968374594342913 14.711766126929387 19.553256278408117
Sb 17.45246006589132 12.180646883538726 19.5477493714951
Sb 13.16073098415615 11.288851053298712 18.585375217257656
Sb 16.496858968948953 18.214868240308054 19.828388641691898
Sb 12.765144140410754 12.972486372754174 20.955883678969993
Sb 18.507500246577255 16.21049976440791 20.31458806451031
Sb 17.172802218111297 14.139181695231791 21.7706018360835
Sb 14.226852428988947 17.14633935791019 21.335979500534513
Sb 14.903215998247456 14.670317270843471 20.091347163681505
