40
Energy = -155.69937864 eV
Sb 11.891075048154528 13.973290275551001 9.875120108213421
Sb 18.151247739601118 13.979932090727761 10.771800945056729
Sb 14.265602232422854 15.494523829670031 9.946013470465466
Sb 18.33332180946705 11.530522820061265 12.306137630067923
Sb 19.839196949490965 15.725653729356626 12.311358706991912
Sb 13.803257452308156 18.18183192594706 11.135545611577045
Sb 10.300873247519847 15.11093767426567 12.20480909536435
Sb 12.439981139511818 13.190037401260524 12.598096762209154
Sb 21.446812323634333 15.541280369891597 15.86902431392293
Sb 15.400952574139012 11.74952097367758 12.590662954308039
Sb 15.740027121684575 18.734282271957717 13.186523609104775
Sb 18.400000690983216 18.237679076582545 12.10636332394992
Sb 15.759557166944791 14.603445600338567 12.274977770287117
Sb 11.571859368370122 17.838283293811255 12.844987027188102
Sb 19.42063066165204 12.30986041822118 14.878207081055619
Sb 15.272503628183792 16.772017513602172 15.271715016792625
Sb 12.386855537790536 16.27633137665618 15.090533317368854
Sb 18.769944682077504 15.120549680217664 14.894399924664842
Sb 8.288409750521577 13.050829130417272 12.887653500657525
Sb 10.462559204596571 11.177656451860518 13.198670998532963
Sb 9.413559129802898 14.777559734583306 15.084794790492982
Sb 15.157348640764269 12.958323616542419 15.247311625094426
Sb 11.733688542097557 18.165471983563155 17.23826452773802
Sb 10.34553497843073 12.159343867978816 15.902648966997322
Sb 17.281622260681242 11.54361311786943 16.675699027242764
Sb 21.93251884572399 18.26321419189485 15.034503726071287
Sb 13.662007753344389 14.445446829232854 17.908399388751107
Sb 13.033242280546027 11.792867752923474 16.920723707116842
Sb 17.088860251767432 15.906108794735301 17.776334415959777
Sb 19.341726709533013 19.423573488044514 14.564520819716861
Sb 14.562512893540884 18.844985953280517 17.2962157645603
Sb 11.352983109125729 15.857763542949671 18.94482346236387
Sb 18.54100405033895 13.464520472553048 18.477835685442724
Sb 21.095362577940122 17.662949537032812 17.76645900321804
Sb 14.9345132254481 18.29578597282071 20.112508096670858
Sb 14.17597640437649 13.7136178516155 20.642371587330736
Sb 13.120552911881116 16.34796572557043 21.196567449278145
Sb 17.024869664894045 14.039591024770647 20.93706168904277
Sb 18.39696025093283 18.43015425193074 17.15922630122177
Sb 17.446558144305282 16.89474734056323 20.45719975243904
