49
Energy = -189.59464299 eV
Sb 14.252401781487853 15.621153919651164 9.61615455173004
Sb 17.969786123372476 18.54905153938957 12.020713849599339
Sb 17.702479586097688 13.31639920357464 11.652738253532716
Sb 15.205678439780858 12.995197724834341 10.288281175439751
Sb 15.157539564972247 19.25046401765937 12.199683576652935
Sb 18.082844153960064 15.870254568645889 13.16357515414963
Sb 13.079391060753101 11.833472599367848 11.797781194426335
Sb 14.816394902333851 22.64836699990852 14.103046251447156
Sb 12.049429564789207 16.179065126914733 11.477226112610115
Sb 14.774719005865249 16.389271250946077 12.354857277393778
Sb 11.305910616922 13.826542945733227 12.97218032939026
Sb 18.368839817249864 19.961352646957163 14.627223253344726
Sb 21.00397519492184 15.774583901755966 13.05678039337601
Sb 17.374461141772596 11.640129779326045 13.965392970089729
Sb 14.59412044743627 10.529532220387487 13.849717975861122
Sb 17.4724695322337 23.423872055585388 14.9620756318633
Sb 11.202256212827814 17.900838591318614 14.385645864836713
Sb 15.160378324959257 13.024468384279434 15.181564831402671
Sb 14.965241472839624 19.923679065747038 15.083159112903724
Sb 12.113689217176244 20.539129501040907 15.223308087334814
Sb 21.030193765304247 20.572948176933583 15.62502886480594
Sb 16.95482613018413 15.850645903622084 15.828353191834399
Sb 21.826006169175965 17.222832605539807 15.39204717449553
Sb 13.682806647790159 16.787424758733845 15.397846536332073
Sb 12.176033196916345 14.318674720545278 15.711460104837862
Sb 15.142433745186807 24.530035222214092 16.25788441324078
Sb 19.141035883840452 17.864350740879654 16.3672079217838
Sb 21.517135365746483 14.27987149239849 15.44235026789134
Sb 17.45174205609849 10.089861393377909 17.91644466907358
Sb 10.296863558788838 16.43205823835409 16.71291987288008
Sb 15.298479865339287 12.082327068759403 17.982081114822414
Sb 20.05378535100983 11.288314576388125 18.031877405922323
Sb 16.943866075407414 22.687297621342488 17.67156585967924
Sb 18.897846036577658 13.590105412715054 16.345462287518398
Sb 16.041287354396303 18.28288155705576 18.69012920771734
Sb 19.5080023171089 20.331588335317793 17.92738155661109
Sb 12.732293259961574 17.18714853206762 18.140148209876667
Sb 12.303578527390885 20.073963067925128 18.063239169369147
Sb 17.74901345483599 9.41006739603442 20.753638770366468
Sb 14.962691747477178 20.944389961568437 18.95813407414388
Sb 15.718425667693893 14.853892498402029 18.7294391935658
Sb 16.284822299737176 11.94797675615643 21.07981347467742
Sb 20.24818494377503 10.814968757578274 20.779640053159632
Sb 18.501660104715253 15.214660834348726 19.405854540479435
Sb 14.445588674382197 15.004461547100158 21.334581085744414
Sb 15.319084271971583 17.75999954791693 21.475392480002455
Sb 18.092019267059804 17.81621789910123 20.68918859408841
Sb 18.60486546789147 13.482338509372756 21.714323434635908
Sb 16.15268370379696 13.811131896539607 23.32472169437161
