43
Energy = -165.13208199 eV
Sb 17.096376939119555 14.381850978272366 9.720743625291464
Sb 10.156137055849825 14.029797508451146 9.842883090358233
Sb 14.530009332246355 13.092453650583144 10.040543443581546
Sb 11.849283873530684 16.350608793319104 10.035452278734786
Sb 16.388035312145952 16.215926861240927 11.904889003429021
Sb 14.860707014375597 18.830247505724383 11.594010717616337
Sb 18.043687016624922 13.665906108619867 12.324013889571441
Sb 8.210901638376976 14.141346652125529 11.921283616847006
Sb 18.765975984399905 17.94807281786562 12.29523123298097
Sb 13.860795421065099 11.533386371101114 12.430395375661467
Sb 12.787379946775909 8.989577145237906 11.5916819348114
Sb 10.189789565542416 10.243114949147367 11.690606867202431
Sb 20.351298669427376 15.250110875483461 12.383152376623258
Sb 11.083322632578978 16.217381295492906 14.45161072277985
Sb 15.945712830959614 11.663669309672427 14.468045408532955
Sb 13.469763324598777 14.994211633237313 11.997361272236752
Sb 10.730649222269639 17.94101435162025 12.148577033149508
Sb 8.443739280542584 16.65907855417293 13.29181612987148
Sb 19.503068688397853 15.297085957063102 15.13452162970421
Sb 17.105324771026517 20.209500878895238 12.51468075639628
Sb 10.891397881935594 13.010264390560469 12.488670212648463
Sb 14.084220011025462 13.630893988239798 15.467609101303452
Sb 19.744764868677272 18.170596059727185 15.353368156015808
Sb 21.68757007117893 16.420266301340092 16.674171790632304
Sb 14.455635481675484 17.855832584757994 14.297247490846258
Sb 15.560785430471823 20.160720455582943 15.62323709769691
Sb 16.08464543419482 15.690711627336057 17.123025316937127
Sb 17.903339749901857 19.540923832148174 17.174524138671476
Sb 11.94099666690945 18.93557120737463 15.191096742692034
Sb 11.345756300808679 9.15949964531123 14.0706487463428
Sb 11.787467570515833 11.664110539429613 15.528743526753749
Sb 14.29531577521658 11.096741354800034 16.834170119982367
Sb 13.495829837426689 19.541354430208678 17.621732924200284
Sb 19.812812446086188 14.986248612009808 18.521591272016277
Sb 16.779283499202048 13.205504985102127 18.545718165446168
Sb 17.185533276908057 17.52268130395417 19.08131145772481
Sb 14.3309528285703 17.102300977753004 18.91655194218674
Sb 14.403531521892816 12.745154989560508 20.229120009611023
Sb 20.993087484578442 13.136309970409217 20.413111346765586
Sb 19.95781389576 15.664910646713691 21.31333144237274
Sb 18.168240535913004 13.439423175355568 21.12450875970739
Sb 14.289323469890611 15.023015317488793 21.9542621230386
Sb 15.623783537446178 12.836667503549513 22.864793807067745
