44
Energy = -156.5149311 eV
Sb 23.91446709412466 -0.18243273753266 9.797373916182796
Sb 13.986687845492465 19.808438813740803 2.9652428053290203
Sb 20.91975120420978 18.57683495522492 17.2900711243166
Sb 20.010944945041764 12.406857351946151 17.54523717518343
Sb 21.090786914614963 21.700696130029772 12.724764060324867
Sb 23.406590406165964 2.4035347543570067 10.719445463603027
Sb 19.475622278240348 3.382251677981815 24.13993126766654
Sb 22.642263977401537 22.996927218098136 16.322408781120025
Sb 18.543063039289763 21.02185223626288 4.524250898302247
Sb 21.73585166887721 24.35459176316361 13.62803321626941
Sb 2.3559774526580064 21.694620073792372 23.698457117085884
Sb 17.697626122106534 2.990251417561406 1.198851165491811
Sb 10.759734559803725 25.004452597273243 20.237685102677016
Sb 11.195384179194024 0.18991081398859305 17.38722005335263
Sb 21.084313855813477 20.753259202222793 15.468297627635847
Sb 20.931671527102573 14.607856799958812 18.668586504127248
Sb 1.2779008419785924 24.13431594501779 16.25073850816868
Sb 14.296802325374092 17.432271492339943 4.38703272551617
Sb 21.43796888879231 22.506218712235206 6.762860140042075
Sb 23.693359646666302 23.11124881336399 5.107290465094945
Sb 3.5452032868571233 24.671893906857292 19.475196851308308
Sb 22.59000700804567 1.58499564252772 3.736353658833449
Sb 20.40491899019529 3.7705389710688433 1.6767199784777804
Sb 23.728391878143025 22.854211995219018 12.261081067470268
Sb 23.7852972858685 0.620534623043598 5.99589303330411
Sb 2.249719177799942 14.49837272635683 2.3286942918251214
Sb 16.165915525443825 21.567269596413812 3.104419221016425
Sb 5.300060020592809 20.668157720210626 21.035753187053157
Sb 12.0758097883565 2.0030812894845913 19.216696770868047
Sb 2.4967488479114985 22.455318128038485 18.2647107868454
Sb 2.094403370244663 16.921310404085308 0.9648223038615571
Sb 4.3228713203430225 23.73322098241514 23.677661351395276
Sb 19.824516608949807 1.1123863499440008 0.7088567271630857
Sb 19.554552591545555 16.269650767556296 16.727837459465594
Sb 24.94929390480584 22.062823848891053 14.92021457245068
Sb 16.3681319902536 19.079644455119986 5.026429145248101
Sb 5.5562757349186125 23.533207057796957 21.130466013697703
Sb 0.18615207337244125 14.277051245629774 4.1749369981011855
Sb 21.93527992617545 24.07881320513819 2.970901608832575
Sb 0.003863768101134386 16.69978929165277 2.796338086522994
Sb 21.34310781006325 0.5342360821074157 10.806331631488643
Sb 2.4870615315726825 20.38953489156577 21.1830256642934
Sb 19.769238894913546 23.652860154248426 4.829495573256401
Sb 5.179914242972296 20.987998227960382 23.954276725014147
