42
Energy = -164.06158581 eV
Sb 15.561384383787084 13.710946668333445 9.930642684327678
Sb 17.34699160634785 15.566190299203596 8.784547686549484
Sb 15.970765696641292 17.78289252573032 10.574587858841364
Sb 13.143602855759791 15.610546640775343 10.465442920947469
Sb 14.248298202990629 19.762812942699806 12.033280718666386
Sb 11.97600709778761 18.319226359548605 11.098395689061773
Sb 18.92627552987206 15.81828439845941 11.198877187714263
Sb 18.681854139834446 18.71298259260868 11.333808058957075
Sb 17.799371143240347 12.33804152336068 11.256817800072678
Sb 10.504902098793384 12.338455637474535 13.11581372135541
Sb 16.41889372502156 15.924655772391496 12.741155869957604
Sb 12.292328037435151 10.258875613079315 14.059337859095029
Sb 16.03004465641796 10.145571695137866 11.663932298168827
Sb 9.994625674973019 15.821240405829203 13.404416679227282
Sb 12.49455073658957 14.52564521990517 13.03203325382905
Sb 9.797576592092563 13.810081681299096 15.526296461463806
Sb 20.477621608046533 14.248673955682447 14.33588341650674
Sb 13.941608117230547 17.842282442048646 14.164341508719938
Sb 14.633813852932708 11.826885156434185 13.521132581163688
Sb 17.8076727185804 13.202055256243385 14.079225139602238
Sb 17.74278373857335 18.215381003158573 14.022558632367096
Sb 15.979148683339682 9.601416734480397 14.809584676928841
Sb 11.130593491165678 18.439838491915804 13.885759908415503
Sb 18.433609825558936 15.978392739760302 17.541405526887004
Sb 15.122658887872873 19.168474887519604 16.43723751393828
Sb 12.221684931118403 10.96739804537394 16.873764880270386
Sb 19.997980590575924 16.943690065038194 15.304152466089514
Sb 18.63603585115609 10.666127309639819 15.111284346960952
Sb 14.954636491770406 10.29073187428849 17.5663959397161
Sb 14.633052091135987 16.66620622947317 18.22378635863904
Sb 12.519110010356545 13.818734922920566 16.531727698740216
Sb 16.141798941206886 14.826660358684672 16.15456895435164
Sb 18.681835948152496 11.542401207582198 17.86184180628231
Sb 11.940379648744873 17.223981991481054 17.338140615205887
Sb 12.824315344800441 19.8816714018754 18.0985451039591
Sb 20.362620575197024 13.845082965086776 17.251818748429983
Sb 14.415642455346486 18.764608406182628 20.230441966502028
Sb 16.109709472986367 12.805657536598153 18.227557172948256
Sb 10.553460612048832 16.445149696890457 19.699986193943456
Sb 11.667438774037002 13.765296762616824 19.36721295778311
Sb 14.168277736083096 14.631257469091617 20.50542851011322
Sb 12.678418321156059 16.90887401085495 21.600211524058437
