46
Energy = -179.04430003 eV
Sb 16.95195295160841 17.05156748274652 11.84710935747729
Sb 16.431926917910467 14.501364807187713 8.853921278102826
Sb 18.50703190738978 11.739217915851665 12.251461275862436
Sb 16.321076330298354 12.075868281297513 10.385291468924537
Sb 17.289746259136745 9.693553212614944 9.093786092090147
Sb 16.62606144501102 8.054988133357444 11.422094802187795
Sb 14.902091388179755 18.841733697062754 12.81383673787293
Sb 18.39283248668178 13.421323886242073 14.61051516102403
Sb 18.315662744300933 16.31865632294322 14.267105857615844
Sb 14.437338730324027 13.68309279344702 6.908730619265888
Sb 16.597222756874462 10.010689785073719 13.588447161827423
Sb 14.865089002775177 15.1264353326729 11.26524816439447
Sb 14.079125526285242 11.082784361196657 12.464745236979326
Sb 12.96262298394018 11.473730944081664 7.974279568809041
Sb 14.541027443979948 9.088169056077746 8.378258308334932
Sb 13.97539442056874 17.72539918557265 15.308880020651088
Sb 16.115183940052628 15.962182652604652 16.1272436164844
Sb 12.728446857638485 15.30843765327027 14.378281795231734
Sb 13.380301093868715 17.559791312446208 10.645493750786743
Sb 11.941771488366639 7.265524045997863 14.408310271079849
Sb 15.498373217332661 13.507790690086134 14.672920541638984
Sb 14.726981401688002 12.65600430082292 17.320150610576125
Sb 12.131378090382407 13.159902241387346 10.305780144233978
Sb 10.653082041229975 16.792938774248103 11.085566114382582
Sb 10.579994457146594 12.948923184232486 13.783927403004487
Sb 12.831327718818438 10.434764409712884 16.99831768101911
Sb 13.74928444495491 8.510828327167253 11.108044483436984
Sb 9.441046892116624 6.6052947595052 13.153808318711569
Sb 12.326099790348623 15.258933357249514 8.308007886060178
Sb 12.671819602687767 14.744758144552069 17.28378573016133
Sb 10.1587460694114 13.312177220446737 8.10336966940254
Sb 10.992437412812713 12.451612963172792 17.978720714475195
Sb 11.971106285029846 10.154584097009288 14.273863629837058
Sb 10.390173324274048 7.527508354443437 16.860352533931522
Sb 8.568950280643767 11.845794987639671 12.01380379942935
Sb 9.982700920258491 15.922489577714959 13.718644298163351
Sb 8.279169731709892 15.230831766027524 9.111359959095916
Sb 9.606061094504248 10.503950401739214 9.685252662630903
Sb 8.5634710689753 9.749045000798954 16.85229017917466
Sb 8.418106676176581 7.988143005577019 10.806645707751736
Sb 8.867464920233175 12.515708108199462 16.046775745702472
Sb 5.916114054375874 13.416357518263721 9.120411687807097
Sb 6.736654164308819 10.636111536576973 9.054800237554671
Sb 7.818445919548897 7.411358407994478 15.388167477881348
Sb 6.463174017941568 9.810385699903971 11.82808401726629
Sb 7.166305734671388 14.286033812374626 11.572239468515589
