49
Energy = -189.03646944 eV
Sb 16.719370680356104 14.861211231951415 9.156267692769308
Sb 11.159446264573807 14.53261542555382 9.573591266214988
Sb 11.655042120298035 17.28025168445715 9.035663018804652
Sb 14.635621382532435 12.96381538311787 9.677326336944878
Sb 14.471049695146448 16.728423441598743 9.969000404962994
Sb 14.851245701489315 10.695550898739183 11.454137820951683
Sb 18.213180757101025 15.769918934189954 11.578822416238648
Sb 8.720030608356993 14.67776364802156 11.053366536147628
Sb 13.294777800280634 14.612725781982478 11.609143400776162
Sb 19.880095067734437 13.665975085966952 12.839293628335401
Sb 9.414204390035932 10.196785354275017 12.44042135620625
Sb 11.154871817670399 18.629475672559114 11.542770217385069
Sb 19.673675946179262 18.144871959308727 13.405291946714948
Sb 11.790857872207003 11.475396375578674 12.782322533919038
Sb 17.177259221226656 10.232536437854545 13.206437344861722
Sb 9.24175955285285 12.837850460648896 13.301659996398762
Sb 9.130332174687691 16.97824204347451 12.78097168308238
Sb 15.238928105386693 12.401857305895042 13.75951192964812
Sb 15.756256653079038 18.51685516667757 12.135063404449372
Sb 13.306556819914553 19.231007409939515 13.511531262279952
Sb 15.942614521455173 15.853257559176978 13.3102203557325
Sb 20.950319311595386 17.339255809297402 16.137376179344667
Sb 21.720176964903455 14.851500790904366 14.80745200107975
Sb 17.69657145246923 20.09138022979444 13.732674614135162
Sb 18.065944279620794 16.590297863538257 15.328927611260415
Sb 18.348537953585346 12.57528649834699 15.168021738333579
Sb 13.785740411354853 16.061373517068876 19.220264725215724
Sb 10.430582268183445 14.17764049393056 16.493615240296887
Sb 11.343733212479943 16.010637650255237 14.384456478028547
Sb 15.49228967155942 8.926103331915323 15.225405971770202
Sb 13.400239208348584 10.95538430962838 15.441618463482431
Sb 16.659210447154283 18.912072893019843 16.3279093138265
Sb 14.015371670185075 17.603858556250632 15.884149695988054
Sb 13.314174799252129 14.161936545895818 17.053276835196122
Sb 10.181924503636608 18.339330182271425 15.787220423351515
Sb 20.938941194579417 12.652403641489032 16.520502899702294
Sb 17.727800413512483 9.93182122300687 16.70202252430009
Sb 20.01039150691473 17.04002512632691 18.93422128454778
Sb 16.74950943085522 14.692576614018211 17.654727245035527
Sb 9.36140555518094 16.483446616376664 17.91413667714373
Sb 17.300963929544505 17.657680815871082 18.988984922654495
Sb 19.473990300261935 14.092511172839151 18.57664898423352
Sb 12.366771298486096 19.41890295994531 17.423636774938597
Sb 11.436628778649728 17.658419754114153 19.537439810846347
Sb 16.425555382495233 11.746764264128611 18.479989460985674
Sb 13.876377151540071 13.788202636464442 21.022454460055712
Sb 13.455276175836584 11.871480068502501 18.81391896549061
Sb 18.323333029217803 12.270100656989245 20.560175194951896
Sb 16.600419662074035 14.692575632883667 20.635314067021564
