46
Energy = -179.48363171 eV
Sb 10.29219082509368 7.593677384475303 9.849256471507605
Sb 12.970874686105056 8.436594809538937 9.133239850513563
Sb 10.739153221644145 8.781294674757374 7.291253968167232
Sb 17.883735334353222 8.608413144984487 15.297123390858474
Sb 8.598164350402888 9.530741398627123 11.156889541053493
Sb 13.206839669895139 11.306009657502498 9.329772294296445
Sb 15.191101646031914 7.865965243449594 14.470229337133734
Sb 7.32237289338284 10.674289563962876 8.814726188503156
Sb 15.786697280450106 9.169375514723018 11.92245698289702
Sb 15.8268207436512 12.110593849319864 8.282450276421661
Sb 11.125640383839416 8.86313171518122 15.576237655815744
Sb 19.111624311894772 12.678583823727108 16.135572026153298
Sb 18.186671402833895 10.39091303243372 13.048758962668378
Sb 15.431558900442774 13.808560923718817 17.26855289625585
Sb 14.168485877566455 11.562690319685405 12.078772096374628
Sb 9.850717997596107 11.496857519841674 7.760243543295372
Sb 10.399998645014847 11.80440883207959 10.885546355595219
Sb 7.4074719995027625 14.142274211459425 13.113541576766007
Sb 12.739260240713502 8.842896367373994 17.928937062765772
Sb 10.58370162425131 10.74940113777161 17.696675521195985
Sb 17.07352917262147 10.838099463540829 17.065783674290127
Sb 16.498598922405083 12.952758934546393 10.972867611356218
Sb 12.445846998380652 14.45735685664675 10.452909551683
Sb 15.10532834568613 14.744727091562863 9.192764157405211
Sb 16.849056101550353 15.720774694075299 13.774437842372887
Sb 16.670840757678768 12.3884036253412 14.651404506919762
Sb 9.785019398164598 12.718251954494297 13.841959202400687
Sb 14.526851679036962 16.22619159902807 15.79064374054098
Sb 11.959867006225114 17.174048146206513 9.57167644286155
Sb 18.07670896062944 14.804971051156425 17.863995568843603
Sb 12.063276724828045 13.014104313955622 16.64536266556888
Sb 13.145170346088292 14.251571326328595 19.060646780472847
Sb 7.9478179440432255 13.154878011230595 10.327386298640336
Sb 8.502673575302438 15.22184163342029 8.396875834388005
Sb 13.729121148828147 10.143672270361803 15.536614521435318
Sb 15.939563913303646 18.221989496060893 12.602987290201572
Sb 10.224747668925124 15.244635890583544 16.50107787458673
Sb 16.127886533493648 18.178004366209084 17.114714782647848
Sb 13.362867271310222 18.11166338442356 13.825792052076451
Sb 18.40742058690712 16.89274087969197 15.861734670023909
Sb 11.315075088056574 14.864316774912757 7.835746045810918
Sb 8.84265251508637 16.630731762574126 12.97878853062881
Sb 12.362267553164566 16.7095781780822 17.839673415369987
Sb 9.148184334180568 17.390195038066192 10.185225083367321
Sb 11.251622242566171 15.220776215702363 13.779328328392172
Sb 15.409088315027997 19.901209055340267 14.883532667633098
