47
Energy = -182.34195953 eV
Sb 15.542882868682522 15.868247621773254 8.793734254235183
Sb 15.699865459405487 18.43680895163596 10.105495142274322
Sb 19.642960241300333 15.774851636986018 11.58601228004656
Sb 17.275700648163806 14.422557549697437 10.646484364490647
Sb 17.643937094997902 17.776696347516474 12.293295049835274
Sb 17.511238358424823 11.777793670972567 9.591732832006953
Sb 13.437144088554696 14.403734941272818 10.189928575617325
Sb 13.116922484377515 18.097688254874267 11.434946277509837
Sb 14.309685312105156 15.760533169090088 12.62450465907978
Sb 19.063615274250406 14.164006190992001 13.923367210370218
Sb 19.636844003151875 19.882994068182953 11.903764460231335
Sb 14.813779901121368 11.84051015981644 10.731096573299741
Sb 18.467947649017933 11.344704510673331 12.304608919527684
Sb 12.567820290089662 19.16366767840725 14.149669966170466
Sb 16.216864980941928 12.947618564731245 13.08428468229604
Sb 15.85189537644186 20.559979524687982 13.200590226764868
Sb 18.432900127703878 21.793963464568776 13.717061733303419
Sb 10.983722010038012 12.878694769767236 13.872028904354131
Sb 18.48800941943054 17.678983898559782 15.60003166375221
Sb 15.227312738698586 18.29517362226467 14.953267834378972
Sb 11.55540149404485 10.368653792980743 15.214821586441428
Sb 10.570436890318877 16.57181276352064 15.43023311485925
Sb 14.230844281194559 10.687829311999831 14.57609582517671
Sb 12.846328092984693 14.795958557950565 14.991575292999867
Sb 8.91385968987861 14.070917779457497 15.527778717017716
Sb 15.80819398377376 9.065317212534033 16.394070320862212
Sb 13.829042182577735 21.64616368204051 14.923169032562146
Sb 15.123120795037018 12.657795934096757 16.906419055518498
Sb 17.5927050664158 11.392237472555145 16.114817897872626
Sb 12.380827970261361 11.236188032380262 18.027328102597693
Sb 12.116036112109013 14.657165885646473 18.37908507002669
Sb 20.4503429723079 15.636081859247469 16.14695993910572
Sb 15.22726609260666 20.01714943042218 17.31134246588042
Sb 11.002464574451082 17.341091716097772 18.267162289262053
Sb 20.26219821700945 19.818486568378894 14.720836750481187
Sb 14.54929395771026 9.532556227612064 18.9910081433755
Sb 16.08849826150334 15.399051077217106 16.60732253686612
Sb 9.394122025271297 13.790970954106118 18.355900643977385
Sb 18.005982500409928 19.201650791992158 18.1151077650526
Sb 15.712156109953975 12.07230080035905 19.799439834022323
Sb 18.497960264942396 14.843854508019966 18.156603992954143
Sb 10.077262583690807 11.275161670061685 19.709779456229814
Sb 18.460928330371292 11.88434645794809 18.801346590338312
Sb 13.569014696224091 18.418715763419886 19.111986655162507
Sb 12.357305141116615 12.824507711846685 20.645902128486036
Sb 15.08493434691258 15.997143552427627 19.292551184500407
Sb 17.61717707974709 17.182433928933275 20.03020203854908
