46
Energy = -178.78546791 eV
Sb 11.85636243517114 12.50669997975198 16.978739286940545
Sb 12.37858791641864 14.930868263281736 13.334213637288222
Sb 14.549856271448995 18.93786852134844 13.762685449577207
Sb 15.241052955144072 11.788655820715668 19.547962126696017
Sb 11.224721058520775 10.665825199882333 13.17969526522658
Sb 18.267967917501277 16.714949097893015 11.432523189143206
Sb 9.290205437732604 15.537917298384821 10.152263624634672
Sb 10.594824088319818 12.63052449624172 7.490456078551938
Sb 15.048235020593038 12.919827176823896 15.261081954269645
Sb 9.017562582576224 8.8183856558802 12.997051366569877
Sb 13.461954336944858 10.2653878908518 17.875890199893554
Sb 12.497832632504979 8.60961861285794 8.667817099391241
Sb 13.95376986701788 17.627165223283008 11.27075391357001
Sb 15.501173639470968 8.562934862088834 13.782835274587367
Sb 16.468694166401722 16.32134311224595 8.063999625526426
Sb 19.38970640213611 14.65432220518922 13.351856949910271
Sb 15.819142937875563 15.412338379757067 12.132251594277154
Sb 11.360844641741064 13.506060143020944 10.17886814538532
Sb 10.239212431822002 9.352152087164722 15.539073432226443
Sb 13.781956735057816 11.179818972999477 8.953932341611441
Sb 16.12711401342188 13.83193213758589 17.778545399253275
Sb 13.298429336890838 14.7084338443988 18.265372456607626
Sb 14.910223228208181 14.38725702999458 9.38343891752373
Sb 16.11307501761563 18.540374632768696 9.710374452053019
Sb 17.32675512834944 12.94023952052571 8.901013564623831
Sb 16.07608475256254 16.6854130435227 14.780206563479034
Sb 13.022415183122801 13.554584658694532 20.906062491967432
Sb 13.048619292153184 8.626756412151272 12.227320915461846
Sb 11.00664112947173 16.657185695658697 18.702420968387422
Sb 11.12843061187972 16.042260612579412 21.418900096441398
Sb 8.630643454309709 12.819626329406677 10.80124705450241
Sb 9.982869059583729 9.844465133641856 7.996171914753397
Sb 19.46847697885204 14.32917175453424 10.442462290553117
Sb 13.139474566659562 11.979414866128673 6.247845309365352
Sb 7.7589286860422995 10.668206895935683 14.808086962377253
Sb 10.267768884176238 16.776360198698487 12.597405337437593
Sb 16.468378645142092 10.223782873227522 9.522312991692365
Sb 17.136688757278378 12.941119235818329 13.199600720108904
Sb 15.054333155819316 10.755478862293836 11.991900199391601
Sb 9.240689321010207 14.648033545260422 19.75119828269833
Sb 11.928051671644697 9.33464799423992 5.899190314137836
Sb 9.913074441028803 14.972689281024309 14.837417742332123
Sb 10.797727943795183 12.165780181973462 19.68638037674574
Sb 15.755273182612221 10.280797042023265 16.1170407480815
Sb 13.245254246654437 16.874363511173843 15.32623053646505
Sb 8.012225311923958 13.270271181684883 13.549212312889525
