41
Energy = -160.2874058 eV
Sb 16.84218509013754 15.538425009158185 8.99905156133521
Sb 18.018111758464627 17.922343636251863 10.155709706697762
Sb 14.228000934544143 12.852790403179213 9.66249149632621
Sb 11.582011319114125 16.54033031939278 11.030278589178895
Sb 15.218890912228948 17.892380875898763 9.433029310266106
Sb 11.816441208936576 13.651041178314259 11.087947349372289
Sb 18.730082703228877 13.120464791590065 11.515508697110137
Sb 15.020841135984018 10.490070118237718 11.13688345498116
Sb 16.00247066772068 14.283295939711879 11.463429822411266
Sb 18.317147231939042 10.92639851753937 13.35906821436664
Sb 17.456682839986506 16.914996829151345 12.786831693125071
Sb 19.8099557195869 15.258122987136339 13.22129439064994
Sb 14.275364683146092 17.13528169574627 12.107024397000746
Sb 9.682596154616364 13.718258850792775 14.127506998099484
Sb 15.553335281002823 11.647460577026111 13.732339102598774
Sb 12.763160239996363 9.070940911728146 12.221440392929471
Sb 12.759055459904571 17.581645397124163 15.106189598970346
Sb 14.87374997500402 19.971042479236004 12.631957894160045
Sb 9.450812166272431 16.397791161098144 13.015621717194186
Sb 12.55226041205386 13.433741473375003 13.88340679824203
Sb 9.958197246703525 17.853111585742088 15.500541993026989
Sb 14.214788400040277 9.275656430802853 14.733016973260211
Sb 13.124580021706015 20.444882027653204 14.866634019433663
Sb 15.734386826157731 11.960486072017996 17.21438268218128
Sb 19.02284814480335 14.824877505752797 15.957855040046262
Sb 17.322934687468184 19.47483901494294 14.106019894128119
Sb 9.686269666684186 15.174772765390218 16.749221213208305
Sb 19.658083448463454 12.058529366872216 15.64109085002691
Sb 11.72293130272692 10.693466395999243 14.383805510584734
Sb 12.546182928535286 14.807404478804806 16.964359168621087
Sb 16.729337322408877 18.185106632286246 16.623689732898036
Sb 14.062311414180964 19.076846080049854 17.227341149482243
Sb 16.124313594571017 15.289747045152508 16.196782968508902
Sb 17.394946003413168 12.561119779524756 19.504475416879767
Sb 10.38339909879789 14.142326035674655 19.81783190334947
Sb 18.25526508448505 10.544019367936288 17.630549965984088
Sb 11.659766651006496 12.252535667193017 18.09798231707416
Sb 16.881138733389825 15.418203622384109 18.994684354575135
Sb 12.49762924464544 16.084384357761735 19.574747652312507
Sb 14.089935046262259 11.731625687171102 19.597043544344768
Sb 14.640338365668345 14.461976055186488 20.603671591044733
