41
Energy = -158.74003143 eV
Sb 11.839409588499272 13.85714493451503 18.617071553678105
Sb 13.686848485188007 17.73625245145488 18.555385116678423
Sb 9.944573635775432 15.031364632108513 14.582646217522473
Sb 14.45993573597284 14.931733504056835 18.99092601881148
Sb 11.112263647214618 17.109030732768357 16.1244955159858
Sb 12.820882936538325 11.32814030732838 19.619712453641686
Sb 11.640824219027577 19.29232103559768 14.254716023257226
Sb 14.465865805151775 14.360666774174543 21.88031875041387
Sb 12.831451717131523 12.103883829331657 22.489241765274546
Sb 12.100716309690165 9.389895129871924 17.19302561745719
Sb 11.45587214332234 15.398529561309735 12.209213852048626
Sb 16.22511944418986 19.09564609184229 18.73064962450416
Sb 11.976003946023331 13.154339915022389 15.74593814839947
Sb 11.565407884370039 18.14406564841202 11.69184347755605
Sb 13.935926767747258 16.403175226867194 16.00174586339764
Sb 10.458322791144637 10.77063097980912 15.277766392982423
Sb 15.30156634887485 11.728951310813033 21.122771194832325
Sb 17.67007928634573 16.625699896926367 18.212941083554988
Sb 14.503103112202956 18.674359559592126 14.293285064444058
Sb 9.48021439864011 14.176171092747719 10.534994493599585
Sb 19.08843810226595 12.148664974419052 12.356488869927144
Sb 18.577516195123124 16.551087910407894 12.143965128277035
Sb 16.891764463936916 13.197616349251646 10.783081470763328
Sb 20.42978101647648 14.587846336827626 13.115890401063178
Sb 18.711950786449595 15.053672358417295 9.602539897434438
Sb 17.334070254940727 11.55421029386255 14.546591569957583
Sb 16.728253354627803 16.756118856836217 8.414413028775744
Sb 19.997695024459933 14.458700699939943 15.973463165917735
Sb 19.027048558650705 11.645711334463885 16.8121274832333
Sb 13.305085067017151 10.366138092773268 14.906350030670662
Sb 13.822321367977828 12.887078768170397 9.351735308025411
Sb 17.608314486266956 17.410609399509195 15.380626055361885
Sb 13.263967952865825 12.986890663733304 12.17156647738287
Sb 14.065825764368453 15.640693443854659 8.501646300420603
Sb 16.02363132420469 15.254778928390444 12.630909055650354
Sb 10.741084294447212 11.68964092963627 11.364114834305882
Sb 17.177972563568325 13.84528076464681 16.31751281222217
Sb 20.051484562977564 17.44067305582238 16.844579788118317
Sb 14.962120767712522 17.224844410207385 10.728637656943304
Sb 10.990372965860312 12.674321200543769 8.644210317749923
Sb 16.43539470532102 20.02190039630616 15.98934390233031
