48
Energy = -187.30908127 eV
Sb 16.011484384351224 11.991091114399458 8.673556868677066
Sb 15.321563320628306 17.883240701650042 9.72000362232674
Sb 12.18187629566731 14.580586750410303 10.415202796298033
Sb 17.79061832012393 16.419684859141796 10.013103032184713
Sb 10.072508735893406 14.337619007565264 12.416670953496585
Sb 18.432500987823875 12.278859017437814 10.169559093769651
Sb 15.246697057657505 20.32915386632617 11.224251496345278
Sb 14.191193383719863 10.689105224833629 10.519874635506255
Sb 17.824209165908872 16.12488749763878 12.904864424765538
Sb 13.490452376658675 12.852707850613573 12.349982917227873
Sb 10.908467390026493 11.536961185809613 12.627641530013891
Sb 18.405219135484842 10.363524798353044 12.294747838127916
Sb 13.506196290367953 16.80525368944527 11.842934742659738
Sb 11.79655575461401 15.862331595649808 14.266309834961453
Sb 18.87129519786252 18.68454477869558 13.675048727224587
Sb 15.951802322341184 18.857904887451827 13.616482870321592
Sb 12.39805401460658 19.442058635942672 11.388648236946066
Sb 16.231312743511005 14.068598542587512 10.681777434971096
Sb 15.774644920679387 9.273789650304677 12.472260678938959
Sb 20.037262808794495 14.308429552513878 13.336130613142467
Sb 9.897625497511829 17.627391018810012 13.213690189063673
Sb 17.95358655151517 12.503507433590412 14.241285900113118
Sb 10.407065893731122 10.802766227339246 15.406565474896277
Sb 15.16828271639573 20.59396987344996 15.833459003316534
Sb 11.123296702875635 20.1268117095571 13.902520530309593
Sb 10.647082322675892 13.54650833244701 16.355267505547573
Sb 15.893981801104152 16.693508624123147 16.115946574932444
Sb 15.114133146797313 10.773074573080782 14.997495669275713
Sb 12.855087382957661 9.48485077989429 16.35418319801606
Sb 14.05876850293543 13.285756159574769 16.205498448149125
Sb 20.586487690718407 15.572798340631998 15.875222678467564
Sb 12.906731117407505 18.767732391996056 15.717904407421713
Sb 18.641597715888572 17.66443392931558 16.386656988404088
Sb 19.49379150823249 11.09522256900083 16.192041216685073
Sb 16.682661583501837 14.05441087264935 16.985103597137968
Sb 8.476091814541972 14.91202800280829 17.81960460287499
Sb 17.050024995948522 9.620202787845281 16.867939785243767
Sb 10.228034656810305 17.20231458246675 17.375683895734095
Sb 20.48688934533115 13.329819084146711 17.772224779699656
Sb 10.651479809290002 13.5915024965104 19.230730770006772
Sb 13.392385306207208 11.483992699251427 18.387756958994014
Sb 15.711806211044868 18.844176674908237 18.117596362107882
Sb 16.003915944161346 10.67296960964516 19.29838918600588
Sb 12.920767999819336 19.74375715268346 18.476783932138087
Sb 19.133820163497553 14.264913233830432 20.057020044676197
Sb 12.491154256472267 15.761377008090273 18.556564956317846
Sb 16.453363217511622 13.538224546142922 19.79586794528796
Sb 11.271885424076977 17.897359965121787 19.99765693695332
