47
Energy = -183.45128066 eV
Sb 14.400302159728382 17.177827133362904 9.440035962362948
Sb 11.815346272208695 16.00758053769823 10.09293135563079
Sb 13.206050488153627 13.534895837669266 10.769242659462835
Sb 14.208679931782097 19.89158208064142 10.373429210359415
Sb 19.978107264664416 15.3626138753438 12.397578454934845
Sb 17.888723631039614 14.82655324110953 10.4591214388601
Sb 12.267235968974132 17.183218255104034 12.678672923137734
Sb 16.882817772989032 12.82535209017775 12.354148745422163
Sb 11.590350673231429 11.230663281379288 11.426310581943463
Sb 20.018372322943232 18.242149113548887 12.557270232989488
Sb 17.29419500850668 19.094385958686313 11.677140361889752
Sb 15.966236023969847 16.513956960908505 11.805419406521539
Sb 9.67208621755056 11.840773999178962 13.493326678422882
Sb 12.052386835563038 19.985399570903343 12.126350354799857
Sb 20.421864772356592 12.922677728212472 14.857849663036319
Sb 13.906149115659694 13.901886754525304 13.55622321661512
Sb 9.903295083411498 16.774489736930256 14.299791639624964
Sb 11.060978492289633 14.148068917663906 14.413624097325647
Sb 18.05794108938369 14.587692903900702 14.427945023957436
Sb 19.064461079816084 11.029562398993344 13.076538089846204
Sb 13.640777410472596 10.9901114122046 13.678558270786388
Sb 19.701208418210797 19.0366784970163 15.31084610295104
Sb 14.135383019127241 17.0430109238018 15.471670763281335
Sb 11.447507266994135 10.669977714809212 15.547169690582995
Sb 16.889846631490688 18.951702793558745 14.574678698402488
Sb 13.92152077051052 13.752883156077894 17.64183081765106
Sb 11.456988361459258 16.952252998728433 16.76191802289893
Sb 17.921137581760323 9.649203369787973 15.374326482057512
Sb 18.566611161427904 16.812849018513763 16.83860601679538
Sb 13.275477254543016 19.791244766932234 15.026164759495272
Sb 17.733216916640714 13.362291276226376 17.674686968784478
Sb 15.29721405685373 17.502140266939804 18.229258538017632
Sb 20.290641736507588 14.825173855350346 18.066822981566872
Sb 15.626185121308882 21.316654727248157 15.66516136754966
Sb 19.379168302424528 17.06205697143225 19.64401479843786
Sb 15.632689783221625 11.156890281941868 16.350431581884138
Sb 11.148133733026834 13.142604069547497 17.09915873063315
Sb 11.482503600741374 19.80892144651869 17.29510353889033
Sb 15.845928842967005 10.24541154371776 19.10067198049801
Sb 19.622558572580036 11.253054114511484 17.112526054111022
Sb 13.423618230252842 19.433513775044965 19.378524790088704
Sb 17.616103433615365 12.267023661301671 20.294049267380814
Sb 16.76105923893464 16.86875383773243 20.815560417131408
Sb 15.98203680927028 20.310364233302288 18.345205832827467
Sb 13.331740525710154 14.072991490392646 20.473747955681244
Sb 13.249889302630448 11.43163520437257 19.298904620826924
Sb 15.946710685210897 14.190711189164308 21.62888782575792
