44
Energy = -171.36828835 eV
Sb 15.72546230816164 12.555803489870682 18.634955846678753
Sb 12.881332047997308 12.065652614829828 18.382030989450417
Sb 13.795676940181238 8.456584375128278 16.91844177517898
Sb 13.852851699765203 14.416423438397297 19.784970380542916
Sb 8.41206537299271 14.018821154257173 17.48629905316797
Sb 11.00004154385701 15.273243445362633 17.255459160079017
Sb 15.299179466099856 10.568662418519494 15.613953154629733
Sb 14.992198277969834 14.935094972432854 17.15544766493735
Sb 8.962353911655047 9.761648216107496 15.352065623049477
Sb 12.794496381160934 13.513216837752575 15.833700942465628
Sb 8.913482032866368 16.047836465557204 15.436098922834834
Sb 16.577866020761242 8.073706936849588 16.298631244368124
Sb 14.154547870381608 17.241300082412916 14.349329072891436
Sb 12.151953756955558 7.550896828349417 14.724117414981416
Sb 7.802831424556082 12.38946722108609 15.166165579548373
Sb 17.761430575292 14.702589226571856 14.875343889025968
Sb 10.943295998855858 17.29808466403361 12.536361550056654
Sb 9.411459852362308 9.370560077054892 12.513637357732359
Sb 16.27540314249203 8.84548218621788 13.507567049126642
Sb 11.554237657415726 10.329990574117772 14.209881785043128
Sb 16.272114257476545 13.105898549740003 12.928314942543102
Sb 14.271471408476812 6.846924706431272 12.949860520511308
Sb 7.407323633278184 13.886766139854076 11.915979186354956
Sb 9.710818900070207 13.912004951073545 13.63963059072503
Sb 13.613540286818635 11.124463890293978 11.412154745024303
Sb 18.959766012832553 13.89269674333106 12.34123845991722
Sb 13.241915240077102 15.560272713270805 12.14593356121097
Sb 16.982231067534197 17.191462243599425 13.652635622338774
Sb 9.837102902273081 17.33767161745298 9.858984454030493
Sb 13.500452171458466 18.387455795224316 11.784615892416056
Sb 12.766604362948389 6.998369659438194 10.477077557249673
Sb 11.996133868428974 17.116897529135954 7.955267093578132
Sb 14.201616632783123 8.392519265026907 8.407859989286454
Sb 8.5772860874615 14.816210813336575 9.39460648976492
Sb 16.738604482766075 15.463846044889527 11.308436261348852
Sb 15.947660542478596 9.876179765652964 10.176913126924966
Sb 8.544213948209794 11.491837368783989 10.692615522059969
Sb 10.837298659717641 13.22700382203481 10.19664895389704
Sb 15.250274238287567 12.606423363718514 9.532777883745384
Sb 13.982751248561035 15.335024362195103 6.803381386957214
Sb 11.869172552435582 9.618713362246105 9.637350746487936
Sb 11.175283508581302 15.155700688032127 6.054105028404621
Sb 10.97263723871208 12.52498129670266 7.419084027486971
Sb 13.845052896228262 12.479102513300491 7.04356193162095
