41
Energy = -157.77400515 eV
Sb 14.985485532335757 12.790853437448652 9.210550741647573
Sb 15.531430791330127 15.514945303626204 10.146797509449556
Sb 16.491959410303178 11.42121855696045 11.193105462799899
Sb 14.177734917199212 18.472218981293693 10.852582921833216
Sb 19.264846970430977 11.396884466119518 10.734995532020262
Sb 12.019990807756026 19.981059161263165 12.263348051258578
Sb 12.483967550700665 12.478518345413422 10.575200094492116
Sb 17.834020425257904 15.072932058888123 11.770148880550616
Sb 14.747046208327413 9.275609095467926 12.111520466849907
Sb 12.140199832103265 9.626919329196653 10.905796853482332
Sb 11.219607817655898 15.607261354197343 11.481772966804446
Sb 9.758227701482072 18.16772892421952 11.955943715621554
Sb 13.872186117336524 16.140484404303947 12.492698654555184
Sb 16.340521663794767 19.57160012600023 12.348643013059695
Sb 18.050845786245485 17.477640874777673 13.121467955137764
Sb 12.909585946367189 11.254951736007094 13.168371439046082
Sb 11.270275857701241 18.090457498706268 14.358595286824073
Sb 16.77532396389651 12.734389863444886 13.810508236100425
Sb 19.541314104440527 11.842566546525964 13.528861533903525
Sb 17.589255789422555 9.885065377741531 14.379042770559478
Sb 15.199191948120164 21.403431960394837 16.473863092338185
Sb 11.108563899566546 20.90978091547433 15.051208108656445
Sb 10.59288476527356 14.458535560165242 14.086334546055266
Sb 17.769867700823763 9.554971438828899 17.245045613815304
Sb 19.462254884737007 11.792259841609177 17.879224110127776
Sb 14.889129285493828 18.969735218271467 14.939877344826655
Sb 11.073967500597883 13.008865743154264 17.438020149483048
Sb 15.525132981314947 11.353795755514863 17.4673037382287
Sb 12.980425764409718 14.43468111316009 15.734330553760948
Sb 17.344336960121307 13.568965666736524 16.88222240700564
Sb 16.995817132719175 19.906164113378082 18.269863793269984
Sb 16.975585777282298 17.591210370163108 16.502055577973156
Sb 12.813335869375438 19.911353779621106 17.066141966163308
Sb 11.090513178620485 15.867898584343221 17.368181362575193
Sb 15.058245631411205 17.83421335136009 18.683699848867818
Sb 18.452328565765775 14.88690230488971 19.239184923315786
Sb 18.41033307811452 12.324137105826239 20.551394213583052
Sb 11.89655224493299 14.466569051808952 19.813370279644232
Sb 15.572576560029646 11.75462758589117 20.294573448666608
Sb 14.674631239460698 14.261086080303564 19.093383822038184
Sb 16.25779476786711 16.084805947628187 20.658065943733174
