47
Energy = -183.4693022 eV
Sb 14.606802669426287 15.277215045331111 9.086532931347204
Sb 17.269419752181424 15.032873577094106 10.215834366245565
Sb 19.047818346847986 17.27394587639573 10.58482694187416
Sb 14.157853928547157 13.252284168199669 11.140183082520767
Sb 15.149713463390837 19.46209394364009 11.275647872745838
Sb 13.401847242657084 15.9992368261964 11.593464005746199
Sb 18.201492008491446 12.239210177431612 12.639927600122226
Sb 16.903561501389824 10.68655408086207 14.705698446883178
Sb 17.98612453700864 19.849014947359745 11.428009565019343
Sb 10.45410461301292 16.891022133493742 13.884626698773248
Sb 16.284632959565727 14.331527071351225 12.822429576455738
Sb 20.179726008634503 13.769222560278884 14.142610665648155
Sb 19.723871060119244 16.588111132520673 13.333175661423422
Sb 10.557593051134472 15.478664219281928 11.374151107347776
Sb 10.597040010490698 12.690864358807145 12.139508148645225
Sb 14.543138556473975 21.99092132338764 12.518236673063694
Sb 14.086116014478502 10.360156758820102 13.97767465484029
Sb 14.02067851075366 19.50512368933215 13.92107152231889
Sb 21.92825471598872 19.037879136134986 17.658842718435782
Sb 8.04619090925618 13.048904478718825 13.463313167214517
Sb 8.335791669321802 15.396680738932806 15.113420772538309
Sb 10.805993825857259 10.737380248070414 15.510191499084144
Sb 17.229462118918732 17.339705092155327 14.54960623499549
Sb 8.360011193039108 11.983693138310828 16.126143403819874
Sb 18.43729696548573 19.92866893112986 14.270814255973132
Sb 21.311021701825204 16.591617355217895 16.361965559911937
Sb 15.744925423624895 12.539307267267112 16.59378809332784
Sb 12.487869096757297 12.908549264184883 14.336311539837984
Sb 16.01593489153427 21.345136778665264 14.913079453305176
Sb 12.835089894045465 16.191206117263647 15.329822854220831
Sb 18.45567769986427 16.407402381671513 17.02784109558913
Sb 19.966492520152595 12.842080141342228 16.944123831139795
Sb 14.380862736784861 9.996827510575928 16.880894418747765
Sb 9.453292583610184 14.49448919977212 17.63624620653813
Sb 11.891444009885328 10.80718673733097 18.150570696369364
Sb 20.39336442074936 18.79750738095047 20.046626712743745
Sb 12.220143621533397 13.643878440059334 17.49007234632905
Sb 21.633481132047375 14.651368438695073 18.44708768431573
Sb 18.13310711933251 18.980957300000348 18.297229905054348
Sb 17.721457842096413 12.131676192282468 18.641686772217888
Sb 15.313021570360771 15.984982421649224 18.41392878267891
Sb 20.5509449250553 16.03128697009818 20.771557344870455
Sb 11.222666891572771 17.05490656687953 17.484777239803947
Sb 16.30228923040459 17.9616339709018 20.303555724389337
Sb 12.667130667495277 15.674884417348709 19.5634702133538
Sb 16.20769310190442 13.959570464902628 20.266072660771698
Sb 17.829663433556572 15.904701176368565 21.675459438065776
