41
Energy = -158.93667138 eV
Sb 15.915579728026989 16.688448828336877 9.150191270653316
Sb 17.095562987986938 14.119132959074374 9.912961051156813
Sb 14.851305436328134 12.416485408359733 10.565425277148924
Sb 12.427418731526888 13.683632644053949 9.572496392500256
Sb 19.50867627530302 16.54280980876491 10.986907643938737
Sb 13.048715578398115 16.477717183291443 9.199131824169905
Sb 16.117118001480083 18.990526338033966 10.88297713563252
Sb 18.7487627454998 19.08623292722547 12.147413279767322
Sb 14.296085681454848 13.559336666998862 13.222287461769529
Sb 15.572553052151825 10.952162371282533 13.41032411262647
Sb 20.345138686872453 14.53196673168433 12.877611690660796
Sb 17.515589840442686 15.105634792594278 12.556549429796272
Sb 11.525175684417698 13.36202743104941 12.28745650397718
Sb 12.050558874381485 17.990099516598498 11.405758183492658
Sb 13.788928677371938 8.880996222588644 13.566683884857378
Sb 14.29850434204267 19.058110060195375 13.141464302041317
Sb 10.563795834316112 16.019118066511506 12.85815162325063
Sb 17.75978061655741 17.96210028707739 14.578859886898481
Sb 11.984087842738024 9.996168901922266 15.467101195703352
Sb 11.86791082272016 15.734607329520035 15.421907985004857
Sb 16.32386045845287 20.346879531119658 15.211003700435334
Sb 21.251412690383223 15.756826974233412 15.33046129945661
Sb 20.260854472915046 18.424303439950073 15.889296028583137
Sb 10.223993149037923 17.143188858576767 17.397767913001612
Sb 12.191716608262627 17.774881157875765 19.462125402119312
Sb 14.54188177387118 16.758260397474302 14.9185294711861
Sb 13.47516261458412 12.365270204963558 16.284661250136704
Sb 13.642532654947294 9.149822112984479 17.705153520023078
Sb 13.61637345037709 15.440093041460928 18.44909027151443
Sb 16.831433505148862 14.623319405076987 16.813420495741077
Sb 15.886189743025323 10.728875737458255 16.614680605907157
Sb 14.859246372017775 18.68680246484427 17.070093323672374
Sb 19.71411292650963 14.583282809018712 17.495262065168014
Sb 19.536255213534492 17.31959293927943 18.48469272302674
Sb 10.805311872682507 14.500577293223605 18.562658218917313
Sb 12.396456051925032 11.483576921306554 18.886207748391524
Sb 16.840227047689837 12.457029031991903 18.80782037951659
Sb 11.243624783631143 15.608316904791895 21.240872062040133
Sb 16.63561365396775 16.90512158422652 18.58391690858933
Sb 14.105915522478995 14.915420424125177 21.21386641641823
Sb 14.585730495303089 12.12039879161671 20.615914561870074
