45
Energy = -174.57119803 eV
Sb 18.508653942056235 19.045818216148525 10.905811595330272
Sb 12.201412238033237 16.632806552863222 11.005312826150533
Sb 18.380701748574907 9.9278529476132 11.04037267061441
Sb 21.874068553831215 15.533202933537698 12.47668188218723
Sb 16.57667571723087 16.83566151495717 10.544813488913197
Sb 16.360315549726693 11.793372030851225 11.864494892895836
Sb 19.818020944449508 14.150330380330892 11.02472651334525
Sb 14.10937935922891 14.622377004614153 11.708866390918386
Sb 14.360702075334276 18.536264572922946 11.33637803771751
Sb 20.183928876784627 11.706163942603341 12.521904713126078
Sb 13.372226645674303 12.4233098769013 13.855573182586161
Sb 17.39186770314325 9.858669251556119 13.751371187494875
Sb 10.92331431359408 15.036398850332413 15.577724953940612
Sb 17.16356715487295 19.807517891469885 13.298235491197868
Sb 13.780260389413808 10.418672577334593 11.812193013381174
Sb 10.514314277608745 12.432200822424472 14.39115288957525
Sb 19.76983753566122 17.293844495730333 13.43670156568491
Sb 13.5027831341355 16.77445711058598 13.578537540722744
Sb 16.805467922925 16.826780192638967 13.394431827701885
Sb 19.46771165363676 19.680200223863274 15.104489167692096
Sb 14.075834504663563 20.90026523594928 15.510060357366571
Sb 18.391995712239 13.761382037105015 13.62255476930374
Sb 14.75358783215828 8.618171353863639 13.895767799637134
Sb 8.899060354614006 14.208396906605193 17.448074091017165
Sb 11.353875390263413 12.670219206213035 17.152521617979563
Sb 16.69493558576683 21.539605005717178 16.465838961917736
Sb 20.61602297309664 14.960100044766175 15.076892547472095
Sb 14.188350945486333 10.459123205246666 16.076887371075777
Sb 16.52116185530358 12.207342183985054 15.998821938756869
Sb 17.259956102272312 18.690362861910103 16.711626001230606
Sb 12.992068127800028 22.32242884714513 17.795965508912353
Sb 15.168208578472552 14.636461027613 16.97748285901101
Sb 9.82211787049706 16.000227662135952 19.59085813853425
Sb 15.625788747088784 22.34266993650225 19.067749692917467
Sb 13.079440072097153 19.415043473131654 17.781422640152947
Sb 12.542587645095548 16.103315526552137 18.610236853367585
Sb 18.001392133101692 15.042747028170133 17.590567995044673
Sb 17.743338798060254 12.35500109942299 18.65898187495731
Sb 17.694879065489427 18.9953709579299 19.532192981810333
Sb 14.930444960556466 19.711282848701074 19.991407829769678
Sb 15.01811133932724 13.080228014251102 19.41787904525747
Sb 11.797166291739822 14.172730089441941 20.630784504084772
Sb 18.047028213697384 16.202831457947894 20.21683552174756
Sb 13.279835141726009 16.56896237941646 21.376427844066157
Sb 15.725858206755335 14.98808640428163 21.46064360671604
