44
Energy = -170.96204308 eV
Sb 16.324068896006057 14.890784986243643 10.281812385398933
Sb 12.14472282685503 14.997981293607397 10.520781374543454
Sb 15.704093367963988 16.46280292489513 12.616740748490631
Sb 14.133821366157289 15.357618132848698 8.420003869348266
Sb 14.01711805777115 12.718646498716982 7.119203181136203
Sb 9.970144785460104 16.92272753248274 10.062340915982276
Sb 13.134287593275868 17.45893656528969 11.719207164961091
Sb 12.769985723949244 11.166616927263734 9.250892915505307
Sb 6.6362818445127205 13.671874871994303 8.40598172084564
Sb 9.529809966070772 8.469301411606581 8.319255363388718
Sb 16.81182158788194 11.906203828350403 7.498942741056399
Sb 10.535550686778103 10.945451077423222 7.396324288046034
Sb 14.273155088444113 9.357740946011626 12.171528166104975
Sb 10.412805353576024 8.949902954949096 11.037375960575915
Sb 11.675477087616105 6.393710260410241 11.476282391445977
Sb 14.106782197882438 7.08061552407408 10.11987128020445
Sb 17.01792370055052 8.747691421896052 11.34069371878407
Sb 13.37157528960351 7.136553787684307 13.762541152519026
Sb 16.068335944953617 11.776992968785896 10.2397386166165
Sb 17.14720343271314 12.457647619289087 13.971547123924163
Sb 13.701878355912198 8.805933117774114 7.877034734872223
Sb 18.480976744548194 11.265387401921991 11.658249971195193
Sb 16.567131138891295 9.125800204434064 8.29753784428231
Sb 9.464860750910194 17.01687204966899 12.924525711072329
Sb 7.266535744693492 15.84779935634693 10.259848974797077
Sb 5.351113640872508 12.305681116493489 10.60616678283752
Sb 10.327884803625627 10.997090300577788 14.01740737766398
Sb 15.872651628439712 10.048956463929187 14.779432859558984
Sb 11.159664159133772 8.366007346961034 15.11715677113568
Sb 7.53449609465717 13.522046026838655 11.957722801857834
Sb 7.4393666711622854 10.632633510648093 13.543585714147943
Sb 7.7448224950230875 8.255773285632486 11.910249848204426
Sb 6.8875910118025985 9.716147182359624 9.536100322248474
Sb 8.709247324406576 11.97002468609237 9.550247252774103
Sb 8.291557075241393 13.233810819528195 17.07550794959788
Sb 12.130665009597287 10.09720968658807 17.23838368672003
Sb 8.628591530452347 10.465980370492353 16.254782399207905
Sb 11.041480310932153 13.914806917306022 17.76052938962586
Sb 9.291607253199702 14.36026756804136 14.547004013878217
Sb 12.686266600815344 12.540231577103592 15.771186745582849
Sb 14.817420436755805 11.164929323465628 17.21256809615095
Sb 14.816434594042967 13.741062144891732 12.663953067678884
Sb 10.470875627108896 16.38727635757236 16.28698230411339
Sb 11.932384199753617 15.748939567934672 13.823238385492534
