45
Energy = -173.59805215 eV
Sb 19.11609847540536 17.34461723893666 8.784014634983604
Sb 15.415598337406886 15.352383323030478 9.066134617608919
Sb 21.688729753818883 16.438521253034654 9.642095895742667
Sb 17.69414541029209 14.280920360194907 10.4868282413717
Sb 16.53497509737512 16.79350601858007 11.31387591917739
Sb 20.82217593302299 19.07205524449187 10.29066620018335
Sb 13.65423227024778 13.94176838166376 10.967204047088572
Sb 10.98352666469435 12.441100830479595 14.310092345331556
Sb 15.914873194780277 12.247511203551849 11.625760462091154
Sb 14.40303184382768 15.816397820336793 13.053046516353577
Sb 20.705840127487896 17.550426905035238 13.930436446536763
Sb 12.466398715897661 17.831871610122104 12.329187047944115
Sb 12.617217594698417 10.93696753285391 12.559973504783033
Sb 10.766254247144271 16.554169574729364 14.386398961155049
Sb 13.693151834891166 10.337765943967392 15.30865034924416
Sb 16.114888447693538 12.96743632104874 14.480242884773626
Sb 22.055461111247435 15.306251319452223 14.247443295064084
Sb 13.051866505215328 12.868139768653016 16.61278649453806
Sb 16.070370379740112 18.588882765231613 14.8880811449665
Sb 18.741312944669367 16.37657628719874 15.892647078596877
Sb 15.200926916182578 21.328170676049588 15.020693118609111
Sb 21.497810794815194 18.40847876780493 7.573630773111045
Sb 9.36176799200262 18.848081068127424 15.215087449613552
Sb 15.697286973378313 9.307582908392016 17.27706668235814
Sb 18.675311046718377 14.283038211911405 13.885495027940648
Sb 8.810189172483923 14.637550133318584 16.20392170995802
Sb 16.099321133008942 15.348585912847907 17.111905642517637
Sb 10.988227740615944 9.606434384189745 14.570896842454774
Sb 12.759264658412281 16.424167197280546 16.638449297497303
Sb 13.225352303279472 19.1542789932715 14.801174196995989
Sb 17.623898043692055 10.998913549546371 15.98822065673457
Sb 10.365798185849547 15.775516244671342 18.28473249904535
Sb 20.24562489351654 13.933745928089722 16.31227049373783
Sb 7.95376203741775 17.26612907414485 16.989332916981237
Sb 15.671258044475408 19.82919961212615 17.45471558067616
Sb 17.704852217935635 13.187903996162563 18.038905126346606
Sb 11.897604900628831 11.395552845335086 18.816524579155576
Sb 14.89926368842766 11.604477102141256 18.7989086266108
Sb 13.079567379970248 18.79800872190497 18.349145138265445
Sb 17.063699153833323 16.882189451987035 19.43705915482805
Sb 11.281770938425801 13.788553041175481 20.28904377516777
Sb 17.680168361269534 14.458105564109259 20.932943301193028
Sb 13.88401451147728 14.83488299744197 19.59289887736325
Sb 15.248044113903045 13.284357639171922 21.542353978750402
Sb 14.459017932527507 17.452778300010262 20.583010490356752
