41
Energy = -158.77604397 eV
Sb 15.391891028448171 12.405933688069076 8.490186336559011
Sb 13.063159524054358 14.083902650127284 8.812872013681812
Sb 14.881998576437436 11.213227602081485 11.107609575422279
Sb 12.22862498901209 12.376389138562065 10.979801039391655
Sb 16.530389306693266 17.719977198634254 11.919742403043205
Sb 15.664320702376049 15.092072469063611 9.624747865621027
Sb 12.702794437885924 14.818963845817605 12.59347839911241
Sb 17.752681145878455 20.348174820259885 12.844407110909405
Sb 18.93869082328209 16.061979762317748 11.4909591919735
Sb 15.775788806166426 13.730366673292442 12.208225737639692
Sb 19.473687617119246 20.717497552362104 15.217955259527628
Sb 14.48723410600914 17.1624706585184 13.830270878150262
Sb 20.907929461163373 17.08374464784412 13.328002621944453
Sb 18.705737624047323 13.325373623767497 12.196845293617544
Sb 18.736491200952134 17.887965364545785 15.023434452031239
Sb 17.21360470994861 22.357981516116798 16.076526062706893
Sb 10.947391342132265 14.712480319693327 14.818793229567696
Sb 12.888968646658894 15.948021890073893 16.649844706592088
Sb 15.398349660459003 20.752539245632676 14.465428685703177
Sb 15.069900626583843 12.657469473297299 15.222614749450733
Sb 20.666650236752364 15.683930037414253 15.856451950704152
Sb 16.260508261976586 15.315847380546373 15.402113593684115
Sb 15.642026715505148 18.57388108582426 16.370966734112407
Sb 12.60291579844012 13.083516814743184 16.68837076828397
Sb 16.190374193315662 10.853172125263741 17.23918120490147
Sb 18.735419480993468 13.710703906969892 15.118901240829944
Sb 16.17450582825165 21.52895385044931 18.717898308080738
Sb 13.71890152549688 20.27557687253037 17.76929683591353
Sb 18.891660191674415 11.750211321379872 17.392891321065353
Sb 11.447530328405824 16.567566335606017 19.091376329954524
Sb 18.034042022728443 19.422145963264594 18.07663202518733
Sb 12.930703671244892 18.809198742312745 20.144483984799994
Sb 12.627916937928562 12.237215745058803 19.592816091776292
Sb 15.323073136586569 11.34137426642771 19.9739510552916
Sb 15.947757709158331 15.222101010819875 18.34318962238066
Sb 12.305605047199094 14.637706034589167 21.07369012906111
Sb 18.596290605279094 14.23189678031262 18.88031813359352
Sb 15.30617565460058 17.97406731796562 21.582366737702483
Sb 17.45054058022234 17.213511422074912 19.86726152461483
Sb 16.969696680486102 13.383066152457134 21.180535249922595
Sb 14.878112328926363 15.187865964391513 22.195602815974016
