45
Energy = -174.95287598 eV
Sb 15.62166890024457 13.919989655532644 8.696756145002064
Sb 12.704527625594547 17.366260742608446 9.659184674824052
Sb 13.305589910918446 12.879633461629235 9.971476549139206
Sb 15.240027248526463 16.790413059819056 8.484123857794103
Sb 12.84083792858186 15.202199471021254 11.55446576965455
Sb 17.14847627656446 17.80244965793929 10.381072082852985
Sb 16.609657335540454 13.594494272714345 11.420008314480194
Sb 19.429764310462637 12.777200130706458 12.0330666790938
Sb 13.436651640543737 19.526936512390122 11.39808994868933
Sb 16.031384417311788 20.438816993277083 10.455446070207259
Sb 15.862883186306837 10.873230321560996 11.229979360614445
Sb 10.37083243434122 14.972022807003876 13.004116079822545
Sb 15.80738047427461 18.631900757101434 12.801239849416163
Sb 18.644842017522553 14.565185834128824 14.15102883211122
Sb 11.197242256239456 12.867522425335125 14.812893004318349
Sb 18.393716204487653 10.189725077604256 12.679472568696292
Sb 10.975055347244568 20.031748933485993 14.50303313161313
Sb 14.842211999953799 15.77737233777149 13.659905494186019
Sb 10.054775843489958 17.254547309191185 14.953589261399273
Sb 18.59939780382571 17.977059313877632 15.61357724610509
Sb 20.767757344539717 15.974658945553355 15.518649172558701
Sb 13.799634665162959 10.756964739369115 13.221704735186997
Sb 17.76219782919421 10.18213650009016 15.463759660438166
Sb 14.084780977206535 13.050514243713085 14.962045411880183
Sb 17.40943164439087 12.9759721276455 16.213770750537247
Sb 14.994866618128333 9.25938826564132 15.419019889782303
Sb 13.518836852012207 19.695106649420605 15.804987630630798
Sb 21.077585412500184 14.90400964933349 18.182830412972226
Sb 10.133317248336063 17.340058087781696 17.995580928080408
Sb 12.992420592866631 16.858135804240604 15.607443675611547
Sb 16.407703531958024 16.243846814871844 16.591848665253938
Sb 15.282811938646926 14.128500426056682 19.12800480767065
Sb 11.149885823637673 20.006224617316473 17.437808092320143
Sb 19.399842359809693 12.549012664217468 18.29740895072538
Sb 12.540043999170228 15.731157256913612 18.490146749030078
Sb 10.613852706322032 13.794677398453814 17.482607195159478
Sb 18.653049074882464 19.0841757746008 18.318285412481625
Sb 15.790454559103454 18.45236068774943 18.408535031375123
Sb 18.63891785765279 16.26287618243031 18.79290620723352
Sb 11.912837810355033 11.491876779972285 18.68970050678177
Sb 14.500704345841383 11.372909460365586 17.41272110357067
Sb 17.582296382383017 13.023721981103751 20.579432965813535
Sb 15.29763270860711 16.58855514693534 20.691985846442233
Sb 12.917428956693959 13.409997177930968 20.631895673972284
Sb 17.981081367694905 15.750749312664988 21.52069137354231
