41
Energy = -158.86923721 eV
Sb 14.197122626950161 14.111189219475806 10.161709511320176
Sb 16.5565494553204 15.825795663164575 10.57188900905944
Sb 19.16248534665888 14.744376937808513 10.024310730309388
Sb 19.634027082506876 11.94578910160876 10.64868282584877
Sb 15.312044334540492 11.54599944373127 10.599056533518416
Sb 13.207643568477753 14.458222929686835 12.89692272330414
Sb 10.821484734011676 16.102684130455952 13.269146505177819
Sb 15.84114701853902 19.033086305482946 12.705880131866978
Sb 14.09306786764854 19.581770312253273 15.010865936363807
Sb 16.211402455494405 16.275429575361816 13.469136085629867
Sb 12.965526653205448 10.230518246278088 11.660824619021408
Sb 11.948084796630301 18.752047753913605 13.093818025449961
Sb 18.529723366126852 10.388607869445133 14.391280638463384
Sb 17.606523950773504 12.524402609568215 12.567412667068437
Sb 20.51346458944238 13.861996642541781 12.583896753621755
Sb 11.345690876107275 12.27585345050045 12.887868463754547
Sb 18.34509400524513 18.199242789683233 13.811527535786803
Sb 15.114807114589635 9.772832506909461 13.547400450765174
Sb 15.131721623611611 12.373610440924848 14.87261310446218
Sb 11.869599565023979 16.180514537294123 15.943656519910853
Sb 9.887540792889496 19.796337962598066 14.80199672555545
Sb 14.818782709443363 14.268730033422903 17.642991210546626
Sb 20.34189343969819 12.432307382870786 15.312986082678844
Sb 18.17922990003327 14.22871539864334 15.935314787014534
Sb 15.321497873721809 21.892743117887132 17.196458409764624
Sb 10.8452997018531 13.752282349581634 17.176673261051498
Sb 14.948591154991046 8.47349716501102 16.226548737529782
Sb 17.684576876186583 18.366413465106408 16.647267232452005
Sb 11.882733159028966 21.370177829984947 16.224254003757327
Sb 12.375890513824498 11.85253561497797 15.619550724195367
Sb 14.91894132411402 17.55718743183839 16.909731543629665
Sb 16.696545602719482 10.735463186348738 16.68645250177813
Sb 12.824980604842057 9.786498857708393 17.63526460243381
Sb 12.602609295590607 13.96023874612827 19.49422013419165
Sb 17.621587276545686 20.783958646108434 18.311519968043832
Sb 19.185385749702185 16.15634629376987 17.8086857143773
Sb 9.806965644993557 17.90701252929227 17.024136085088546
Sb 17.476783756503597 14.03303057151159 18.784759193525716
Sb 14.91847403969754 19.762622007572922 18.98514842105011
Sb 11.593991385532 19.704399766247324 18.41111140576678
Sb 14.364462060843271 11.699505070960734 19.15100437852422
