49
Energy = -189.31721154 eV
Sb 18.56237996708811 14.560299947896421 12.667590824970839
Sb 16.407811547410947 11.95051987936755 11.251103230991966
Sb 16.185002478180884 15.39281074599815 9.903848554442517
Sb 15.241446498834236 18.07977406185009 10.371519005034433
Sb 13.357180992795303 15.952382804401822 9.646441428923422
Sb 13.550737114984475 11.49286185379635 10.774319412970295
Sb 19.008055343037483 17.306855825605478 11.985064556366423
Sb 16.56368654660708 18.647317015096906 12.926431332192923
Sb 21.138435149618086 13.416252847625701 11.962535875986822
Sb 13.178614914101251 21.35283382206189 14.04140902576443
Sb 17.124381426933965 10.892392317598986 13.856533308573667
Sb 11.768768199251536 19.448205960955967 15.715214758433543
Sb 12.613432050186264 14.083843882490568 11.753355152124554
Sb 12.68540676957178 18.696072209971103 13.028326349055904
Sb 20.21447985766718 11.462880070547206 13.90711966567444
Sb 15.490047383638329 14.372230143180012 12.531205459857857
Sb 13.307628486792987 12.791189634860102 15.083803741916244
Sb 22.042777019850554 14.935239686265115 14.282257909086505
Sb 14.877681681570149 8.924748427315338 14.255892226080691
Sb 12.686909738750884 10.526412495740159 13.35410970271238
Sb 21.2478747778647 17.68353017775365 13.805778243056606
Sb 19.51348273875248 13.895792515668756 15.34881670331657
Sb 14.641630553085307 17.01966159600144 14.349949995012494
Sb 17.994066523721287 20.85772218769216 18.151089530820723
Sb 15.581434688901888 21.07621465523864 15.701917925143144
Sb 16.213689139106574 12.607001466666308 16.04984636827862
Sb 12.494849144496609 11.031825545090863 17.203261914702455
Sb 11.748719253359482 15.207077624364437 15.605856717050775
Sb 10.363401613448119 14.531754259926547 18.006545225399762
Sb 14.333943116187328 18.711595246647626 16.835898226875912
Sb 19.506529961958154 17.643811191865833 16.099609656136604
Sb 14.069835291226466 22.44999623721415 17.786774564298376
Sb 21.497987802594764 16.890141814037403 18.05965300810618
Sb 15.214437634765872 10.01986506600858 16.961299585014444
Sb 13.996897342885866 15.287572064376539 17.779345000030652
Sb 17.672430715481976 21.40682610308972 20.938176572437953
Sb 12.688715464369032 13.106858915574302 19.201490383766775
Sb 20.603754392203076 19.660090993317294 17.837513017418296
Sb 17.75904741750668 15.323753983883295 18.14914715485481
Sb 11.880948129373454 17.021646995099506 18.771862547482126
Sb 16.27807756281574 19.140957607286648 19.753913221625954
Sb 18.026698036727726 16.720453144788248 20.63957911421099
Sb 20.145187880127434 14.863581278341753 19.62616998191469
Sb 13.610528528618621 20.462529372322475 19.91830048521513
Sb 17.108636947961298 12.683095840212296 19.217244808361503
Sb 15.159482883815034 15.828988618947198 20.606661350564362
Sb 15.231969810078168 22.885453620716714 20.380424566348303
Sb 15.23298281754224 13.039500995759312 21.22246836439803
Sb 12.910096376882 17.389776962211872 21.425523959724934
