41
Energy = -157.39607766 eV
Sb 16.853153666387612 18.028412767207175 7.888643794633785
Sb 19.49524604605883 12.089580992775407 9.371803380986824
Sb 18.156025390720558 15.461442170850907 8.613513176386963
Sb 10.537016481341256 14.510466026497795 11.64861930636263
Sb 17.154516044533068 11.598544543725803 10.87895117473163
Sb 15.292163799717832 15.663652648819378 8.390950700134036
Sb 15.044486491146426 17.973349436870794 10.100853273902521
Sb 12.095579521624572 12.170714524862753 12.211659905123227
Sb 18.9021114660757 16.26032388671337 11.246275968964435
Sb 19.14431357476094 13.410626858174128 11.808958857057986
Sb 8.434400343655328 15.093570050955112 13.465189430902576
Sb 17.97395614549475 9.874503408707042 13.238328721827804
Sb 16.398681749432843 17.04020955850155 12.497029225041485
Sb 15.319909740081808 14.45502005518086 11.939193081387726
Sb 12.838642503882848 14.699135254620764 13.437180200799467
Sb 11.751416961137583 10.966960908993835 14.820762079384384
Sb 10.843282107819629 20.579080783885967 15.022387311436317
Sb 9.461039865883427 17.949886395733948 14.463198058484952
Sb 15.35353105804181 10.667129648717765 14.362046390513934
Sb 20.002543845967526 11.6944727890331 14.08300783192831
Sb 18.561899573049658 17.261160532811306 15.503760556033196
Sb 12.139563651786913 18.496725602199067 13.502195935041106
Sb 8.621417978321174 14.081069336586516 16.108905504414775
Sb 11.49029450263468 13.194754767576223 16.639591903521737
Sb 9.528799225810001 16.833255590044878 17.1159565335861
Sb 15.831319769368555 13.473376921166274 14.713374637903417
Sb 18.312128692668644 12.74575282618181 16.101458570718265
Sb 13.121378315653923 19.251223621802367 16.105614057469797
Sb 9.058202073789795 10.893034362322908 15.722039221133702
Sb 15.469252446863088 9.61374831078921 17.071169212111645
Sb 16.74557817047288 18.891798474604123 17.104723606030028
Sb 19.629902382803774 15.16142846011594 17.164718076457415
Sb 12.354519004203231 16.543231718121472 16.90682444850477
Sb 10.425238182224223 11.050162215477236 18.23792345973557
Sb 15.89323125202675 16.284976431498492 16.070955883485063
Sb 12.830947578331457 9.349718995758302 18.314833436233574
Sb 16.149812855706482 17.41981576628497 19.554818897789648
Sb 17.02939737791252 14.91209674064962 18.431084038625038
Sb 13.481659277183253 16.01183396363688 19.549088780951323
Sb 14.735250522606112 11.260484269379834 19.3342749013148
Sb 14.149104775389112 13.69418279473504 17.86905088151914
