41
Energy = -160.80666185 eV
Sb 14.581224618371326 15.820819747357348 11.135449654119261
Sb 16.981886504333417 12.976564430124778 9.317191355060812
Sb 14.175797507412405 12.386593629708845 8.889261364503863
Sb 13.317154383355966 15.145683634978052 8.609154963107542
Sb 17.15788523767562 15.82516544558435 9.881563224114394
Sb 10.668275232015565 15.234496234866407 9.575589518877372
Sb 13.761120667898535 18.5137092814374 11.430862063615308
Sb 17.055472383658103 11.701750060572786 11.881073280922536
Sb 11.13134836088903 17.548652956318822 12.04639045761447
Sb 12.047318348582957 15.2769717665395 13.612006718567224
Sb 18.854666484158457 15.85491001697861 12.210144243359217
Sb 19.422640646750246 13.038656946455644 12.834938220284343
Sb 15.302479433428427 13.437405688943997 13.392080561700677
Sb 12.872455279796338 9.88284646143825 13.350559572216465
Sb 10.703424236688347 13.434590697813197 11.783926715027278
Sb 13.279891300796105 12.234943383436804 11.658977681218646
Sb 15.819272318543014 19.171401320554203 14.11486261675474
Sb 14.862240255769319 11.05680127734313 15.102288000307569
Sb 19.1866132824718 18.057641814120714 15.7135041452967
Sb 11.180732526542 19.37639275093591 14.467529196794231
Sb 9.995316276007177 15.04827049792891 15.6316590107737
Sb 16.91902749428792 19.348240552796668 16.922357466334986
Sb 12.389073854234377 14.886864210227662 17.275163997788745
Sb 18.150571275545197 13.413143321677307 15.437060625050202
Sb 13.487909703786842 17.975842360121746 15.341973167293435
Sb 17.813877788950634 11.084927705580697 17.199949722709643
Sb 17.051655979467785 16.513630690718482 14.463202841617521
Sb 12.141938000285702 11.904667808721252 15.35593107382326
Sb 9.610220403679495 17.84693905490521 16.3565366474811
Sb 20.493029376785103 14.082934165584476 17.00554982392038
Sb 19.976707326328352 16.665751540109305 18.11728385487138
Sb 15.624699259283284 12.952726428868209 17.797499983968642
Sb 15.687834977671688 16.804857882703818 17.67659224402307
Sb 11.349876095649718 17.244622228307612 18.642003197791333
Sb 13.677242364865075 18.874384792993144 18.121078164181007
Sb 13.896946547203367 11.368171779779031 19.510043458459396
Sb 17.61642470231703 16.54106449280963 19.810695831560686
Sb 11.68677347686188 10.504536927514106 17.846814921341608
Sb 11.508049168182067 12.990826641326276 19.318689143199613
Sb 19.55537005667078 12.435834916010608 19.165245683385493
Sb 17.185335874017717 13.715543467024645 20.177094598179217
