45
Energy = -174.67532757 eV
Sb 14.801979656028813 19.51999094710396 9.818875000964086
Sb 13.467474173233517 21.73316779404684 10.987193954080304
Sb 14.640460159363744 15.185448359302306 10.809422781226013
Sb 13.350649735910057 17.71098507255577 11.55965912151158
Sb 14.892542909311862 21.418429591901916 13.333312335585402
Sb 15.87750570088578 18.828970000138096 12.426984404164514
Sb 16.594245777790455 15.043205949434606 12.970073591225896
Sb 17.856896143551158 12.644777743457917 11.894611388822074
Sb 18.88131622013405 16.84537751581849 12.28233142752879
Sb 13.144244386118016 19.849280749034534 15.263278019505735
Sb 21.4435461871476 15.364924043863848 12.654511546738638
Sb 12.38492192695775 14.357270784443717 12.449751657789726
Sb 19.957521700769774 13.201176695255834 13.746473969086832
Sb 16.831027635727192 10.637625366054765 13.725583560076958
Sb 12.766688341650806 11.792476722865374 13.796497227799449
Sb 18.462049769146468 14.862705630718352 15.788626779033786
Sb 15.214120524303482 12.570761677100187 15.086576846927905
Sb 18.43427992556154 17.662735026926544 15.021567374665716
Sb 21.08146542686433 11.087833860866684 15.159616744334432
Sb 11.220733649352251 21.11653550686667 16.99856343704912
Sb 18.542761768804475 10.293408699223003 16.070302132137638
Sb 22.51352389835568 16.032905022625126 15.29574862859547
Sb 11.316491891295625 17.65260267374889 14.627989644869011
Sb 13.34231161853212 19.533425110708496 18.171129057020895
Sb 13.140416601157668 15.45650648491769 15.01707887559327
Sb 11.325583255167576 13.297171319083162 15.815948353819403
Sb 16.7059007045952 18.129562871563788 18.399895265814795
Sb 10.83821517955974 18.304286488531673 17.48020462862724
Sb 21.14172437193997 18.539040712601064 15.390725504406008
Sb 14.755790424290616 10.794386036722381 17.273595677557513
Sb 20.963296404349606 14.400488670600284 17.14361506230647
Sb 21.22093807635106 18.932274220511236 18.244848700037284
Sb 12.562923897164682 12.395697759964861 18.314301910379644
Sb 13.123005783600954 15.040796540323402 21.480374211538265
Sb 18.654233173664036 20.185737945882913 17.908168962802815
Sb 16.52600978175538 14.505146160222372 18.019668408854123
Sb 17.256530478730095 11.703242991849866 18.395635091887957
Sb 20.82797207835368 16.295287858398215 19.314868258721866
Sb 13.519396062725946 15.075720294939096 18.753552135217433
Sb 14.416850538106551 17.57082282886212 21.168020482830496
Sb 16.74440874943454 20.484028948299045 20.08880264084165
Sb 18.002657351778442 16.07883177778924 19.991393931096727
Sb 16.57412595113657 16.839946018149405 22.935217375612666
Sb 14.767113157974181 18.978706301450405 23.69733817238401
Sb 17.440387880033 19.572536253940676 22.754304747594716
