42
Energy = -163.74656755 eV
Sb 14.112600117642065 16.922484529218025 8.591225560640083
Sb 17.041172918651412 13.553028558050483 10.123361408461482
Sb 14.705093744334244 14.091984203310991 8.539263991526715
Sb 15.358982584028206 18.566020806636157 10.4922540059007
Sb 16.861619163941672 14.831417955759495 12.670942794556542
Sb 17.75702546991861 17.21739001270101 11.244987396606307
Sb 10.772373138577308 12.045019339497541 9.448204998767887
Sb 8.757729123752016 12.423573675896863 11.517856799079516
Sb 11.435836280915389 16.55651953035802 10.341168843326024
Sb 11.85607185748989 9.670860355528355 10.763929194328247
Sb 17.38481318116614 10.887160209408083 11.353676307995562
Sb 18.541212227727083 18.921408965081326 13.50987843115319
Sb 9.76587064514373 16.043139297447226 12.997565154396419
Sb 12.676519835917013 13.932763041825096 10.575614780536089
Sb 14.013175485616735 14.708520164728942 13.278105543384896
Sb 13.28678449722985 17.428635895594105 12.379102691614374
Sb 9.192467043989572 9.596448454428234 11.862943380828257
Sb 10.80080669205966 13.356269810856132 13.3300156130162
Sb 18.50743511946621 16.512770464449062 15.117108555776941
Sb 15.359483431337916 9.153670082187933 12.533641711106918
Sb 13.280308679162957 11.195833086721262 12.80028211614938
Sb 16.10012585802343 18.182272037399947 14.789532125403055
Sb 12.274781654942164 10.051626927401784 15.281681987437004
Sb 11.33834485850046 17.685701239199112 14.659270216837799
Sb 13.439215036806782 16.100291464461527 15.98705725177912
Sb 15.529617655544405 11.984122473281003 15.386894252000245
Sb 10.16220599208726 11.96588568320047 15.817978265118931
Sb 9.554206070747806 9.33002134167987 14.694277836823739
Sb 18.062112587662046 11.938341587406281 13.960634364429897
Sb 19.694578261817696 17.113634415633232 17.70146010504909
Sb 16.86033778071104 9.45701247917107 15.00116990183766
Sb 13.422576431253782 18.381186029197195 17.850556823484766
Sb 15.938229165350206 19.732838654240826 17.241615659516413
Sb 19.097806613250203 14.354239634015828 18.478471712057107
Sb 16.301813970441067 14.166254723548338 17.246641815344354
Sb 12.735562601345647 13.768318665835753 17.400712254317035
Sb 16.912458506282398 17.264873245924917 18.32774154132189
Sb 15.667492320820545 13.100536679146531 19.824802064303118
Sb 13.833830868722627 17.245995060949525 20.487157795507375
Sb 17.769124275711068 14.696960751380052 21.04252065257969
Sb 13.153037875562976 14.44993489320315 20.147946917091147
Sb 16.64982439181046 17.379697589501625 21.165411194071396
