41
Energy = -159.1542821 eV
Sb 11.643369749622353 13.273447668947595 8.500786859050088
Sb 14.286940803850205 12.151104653853771 8.626302642047376
Sb 14.917100552924511 17.011531345934237 9.243317853566827
Sb 16.978235099628687 15.030860453389419 9.733177623562929
Sb 12.781208131742334 15.287921706844008 10.22769841815372
Sb 10.384914154914902 12.322927196694545 10.907019895899818
Sb 18.62645799367837 16.13195128054347 11.617088501918616
Sb 15.357384229816116 10.242081167518089 10.514361389722314
Sb 14.969545322837483 13.052976672010608 11.281171560711277
Sb 14.830387528602262 17.210776192881298 12.133646722448189
Sb 10.39904989238608 16.926985894962694 10.154673035637629
Sb 14.482864073777316 17.454774658231358 15.638308580932508
Sb 17.31374988065283 18.572503838040248 12.40758100763341
Sb 13.49775444625893 9.582444993024057 12.611327607447471
Sb 9.301712111675133 14.878484802192709 11.901683611182014
Sb 17.85872550518597 10.325273332529312 13.27415092807641
Sb 12.517151313942286 12.318009451286859 12.824090705612738
Sb 19.236672814519434 12.917193770959562 13.580078146255842
Sb 11.41587382854348 15.71011778589891 13.734515835539597
Sb 17.342500006533125 14.759314096292753 15.021807947502726
Sb 10.71724108807008 18.328340759351963 12.708750549649833
Sb 15.334183307741204 10.921782627437395 14.48227306003843
Sb 13.305594812668057 19.522091423576867 12.813210932375362
Sb 17.271322198751648 9.271377209904616 15.893415577934546
Sb 14.313867878383626 14.543005881610444 16.136831799182552
Sb 17.32239528433386 17.733166266303055 15.185839430620431
Sb 8.735146508984682 13.358959500195244 15.737046536144785
Sb 10.64989512167926 11.437534338297107 16.722852268190163
Sb 14.893992767557272 18.46787804102765 18.32124173057019
Sb 9.710453418373552 16.02759867351233 16.0520996799659
Sb 20.47447697735889 12.419168360792685 16.169516057531784
Sb 11.96994688129719 15.38476977711741 17.7441279903691
Sb 17.72000355538846 12.010362888748386 16.73846721714159
Sb 14.85592593885036 14.05482673089732 19.003462846663563
Sb 19.718840483693103 15.195300455143359 16.636448201472525
Sb 11.285790823231975 12.93315542306442 19.08625455056146
Sb 8.522206972189437 12.360743456312768 18.42768408494178
Sb 12.880233657218142 17.125901382551778 19.804755320438765
Sb 16.17949531503667 16.41023164244866 19.847805820390143
Sb 17.442864324802485 12.642366460951877 19.5352356300971
Sb 18.92663946762845 15.062871963049519 19.392006067148117
