47
Energy = -183.52571945 eV
Sb 14.027156329589646 15.403153389357147 9.029203679429534
Sb 12.401763792700818 13.218674042424352 9.976119624469499
Sb 16.850297202750408 14.906347535128132 9.638368941916271
Sb 16.991394440820258 12.243591311144622 10.697224658969356
Sb 13.780177829899 17.42847169721371 11.05793778445206
Sb 14.418176583922985 11.133144302854172 10.137465342694219
Sb 11.142183222342833 17.007282295764682 12.083593434846378
Sb 10.987305561729087 14.094371003582117 12.355792532873549
Sb 14.678769758093827 15.322821281411244 12.812077373608828
Sb 16.920399235627634 21.220545369218915 14.17852595382429
Sb 18.487625686337907 10.606172807114033 14.630329094857
Sb 17.2621131275608 16.425992654330646 12.134675085752182
Sb 14.64342673533254 10.14255429524013 12.960136285989845
Sb 10.810846845803324 10.617515469543566 13.07310404757681
Sb 12.343222322360702 18.575157484164677 14.245276271213166
Sb 19.662740948333482 21.629694921944182 14.867879291825824
Sb 16.762695702439444 12.69852945453521 13.616233069871074
Sb 19.96057022064779 18.74694233043148 14.135642847228304
Sb 19.04012580502538 14.457398820282101 13.337867040509773
Sb 16.700491584767537 8.430634561914173 14.331503936164532
Sb 12.490126646467573 8.261721215041442 13.329407596737852
Sb 15.333565139825534 22.185796295530377 16.380362734288767
Sb 10.56727971218019 18.01181531383991 16.475647676876452
Sb 19.707738059230806 21.372351948117633 17.710988108911252
Sb 17.228230272485444 18.35241748608603 15.037280843043607
Sb 12.433435913292799 8.686137155687154 16.21244179663352
Sb 12.897100770066881 12.530711075000722 13.954741158935555
Sb 17.23592808070309 22.551359563689022 18.527050347162962
Sb 14.125952504755954 16.598554742016482 15.380351421622622
Sb 16.74319449936735 13.057821897711216 17.15127902839673
Sb 16.91956758438861 10.413902228555244 18.34827269849894
Sb 14.994470635102507 10.032279827999396 16.11009315575184
Sb 11.11270571251956 11.260797403761908 15.90973499956706
Sb 18.591501829615105 15.424837421549066 16.005805647368774
Sb 20.887821367198462 17.1619075025326 16.407647659363523
Sb 18.73903811712833 18.690648354749587 17.557599301761233
Sb 11.566869713187792 15.354918658538404 16.036427547839413
Sb 14.852365748923331 19.4909418326992 17.439490147344845
Sb 15.891056405602061 20.3751324632362 19.994042901005663
Sb 12.250095826571984 19.054095097830732 18.61069570888527
Sb 15.277224438651853 11.88140867766369 20.288479009059454
Sb 11.957524912042649 14.588524604474134 18.772299039236884
Sb 17.178981704295293 14.076207805896018 19.8354203898072
Sb 13.81495505027648 12.538379403717567 17.889795852721935
Sb 17.657746115553014 18.10907700630327 20.173111913333482
Sb 13.356163586634741 16.7655032429103 20.068322415097832
Sb 15.843215766422405 16.3890957958384 18.61959365125146
