43
Energy = -166.53525714 eV
Sb 13.971345613410529 13.576444358176447 9.586941903457612
Sb 11.831046446886004 12.274760134547005 8.156727212479607
Sb 12.727171417960669 12.223749997893227 11.879573863434425
Sb 11.687932477181743 17.4781411000666 11.437732331264137
Sb 16.484784993264718 12.798943691297882 12.433905305998039
Sb 13.232410309492137 9.888162727667428 8.911667442803436
Sb 14.056630152340096 16.398835392461965 10.162483345739897
Sb 14.96269691691586 10.469977254156413 11.379027591963556
Sb 10.864528156016375 10.467028934840693 10.370777510078875
Sb 17.933441159863225 14.974688475722582 11.148727964649687
Sb 15.564272797686979 19.18468542025625 13.535532843651307
Sb 10.276760382978242 15.175017157142046 12.453809140046554
Sb 12.857603895895728 10.094040308620723 14.35121201177234
Sb 18.411284178562507 17.47564585155392 14.29399033478541
Sb 11.44898816130324 8.230992739826645 12.719820956737681
Sb 15.464042533302894 15.573199893798765 12.577639836726506
Sb 12.479503319551032 17.64291518565251 14.213083493936589
Sb 17.697349781300577 14.063694004805527 15.218539964083314
Sb 19.719331307419015 20.06133142223018 14.15156631267476
Sb 15.654445493526024 10.526530522071939 14.992997702210243
Sb 9.674018881536933 17.012985586665014 14.616658309835769
Sb 19.77232915015545 15.083008558231757 13.412915158135155
Sb 13.064634517175628 20.496857004967513 14.317201674417634
Sb 19.833475608497366 18.486664392848176 16.568568413484627
Sb 17.18023484481183 21.455336483131283 14.204216365296302
Sb 12.470049871991522 14.119561436381325 14.114683926185126
Sb 9.499851990707626 8.661974440425324 14.646555071664489
Sb 15.441690871838766 17.789141430493544 16.096637353529964
Sb 15.522833847034763 9.155535099683911 17.370336419014997
Sb 11.545196569739643 8.97709652872814 16.6362741396661
Sb 10.073561124974848 12.765332433762428 15.156476018673427
Sb 9.986069163037634 15.114858210099428 16.82137584013702
Sb 19.249057372366643 11.941508306925941 16.4086610177485
Sb 17.326495654617418 19.031279589661857 17.87264504057083
Sb 14.61152479835136 13.296667498727778 16.491854133096254
Sb 17.542382166396678 10.827584224283536 18.484586421959698
Sb 13.955960283533049 20.154314268136137 17.041783809232985
Sb 16.49610147769423 21.623607705758353 16.987686610324047
Sb 12.773674693253412 15.360533820030891 17.685917440469066
Sb 10.501574179704395 11.471454587616659 17.668037651487335
Sb 18.892465256683753 14.484672927204777 17.81118856980967
Sb 16.356065795995736 13.460504933995738 18.85940603598608
Sb 12.906678502263583 12.652232076671446 18.75207362800114
