41
Energy = -158.32244962 eV
Sb 14.575668562089795 16.602484433599894 9.548484542493918
Sb 12.664040309705756 19.54315497011144 12.434461607580458
Sb 15.59143751940873 18.580398368603586 11.467632643254396
Sb 16.249402169575337 12.669792372296312 12.444882546896936
Sb 12.215716487503936 15.809926345335802 11.038166308230556
Sb 10.330572148649246 17.846544253265375 11.83642266920814
Sb 18.53823801215073 18.271124404421073 12.041023603671002
Sb 17.140771929845332 11.136642432853288 10.11462317285038
Sb 18.795101116584966 11.210185468737496 12.473194976162938
Sb 15.370896257352726 10.17779438238447 13.64925998629982
Sb 14.751626424736793 15.930501658754638 12.416952928917405
Sb 16.834934704719767 8.754952154124197 11.657288349605398
Sb 13.1346086369624 21.685823099199958 14.454961868292887
Sb 13.01919290710788 17.69065857451937 14.658787588291474
Sb 20.522167401203774 13.755879661201854 12.7575078198547
Sb 18.15691673508657 15.354694691398104 12.548303402562862
Sb 18.26740893837748 20.19643769831483 14.161790049236364
Sb 12.536601811734073 10.527847760921965 14.34331407068776
Sb 13.030446913380409 13.328292664171434 14.066080156485711
Sb 17.0381072383379 10.402374209133786 15.96085655229152
Sb 15.387487376871901 19.836071775360253 14.634110658737955
Sb 12.52856899358611 10.363389752699673 17.2584553868903
Sb 16.60024452451995 13.296747310227964 16.005848673224303
Sb 10.231690824867803 16.9003013385039 14.595798116968725
Sb 19.115379459178722 17.882674238256232 15.765786135954011
Sb 15.198443529922237 9.439499757426322 17.945193234627226
Sb 19.173473222857183 14.591770733943884 15.128246893139481
Sb 10.463527491776578 14.086428865250019 15.113638761221173
Sb 13.446297268783953 13.060070371205011 17.475166982776418
Sb 11.839249747907468 19.851771676318332 16.26684953272076
Sb 16.49780494033138 16.840813683861693 16.33148182712963
Sb 16.058062910837766 19.569392486431706 17.46515570405777
Sb 11.130739416466145 14.755829431224845 17.889112865305574
Sb 17.90807000180732 12.901550255614143 18.589033826337438
Sb 17.985919128610693 17.484857719896088 18.708900588833494
Sb 16.062353366308216 11.26468016579949 20.05527815171976
Sb 13.533606371107489 16.47964880444235 17.802646139477286
Sb 13.41223635745603 19.26461680630781 18.64765489250016
Sb 17.364767168402746 15.086379024885824 20.309081215142264
Sb 13.636905325233567 12.8417000300783 20.345764421903265
Sb 14.518559420597489 15.583539240860285 20.450044220402308
