43
Energy = -167.10263283 eV
Sb 17.30948355420341 17.092479571703816 9.811690552561656
Sb 14.649413274404264 16.281472291538403 10.78647031163726
Sb 13.398608783057282 18.89740325788268 11.117861832090739
Sb 17.712739039636006 19.436226684419317 11.405482856358113
Sb 15.416955364137252 19.343079598327698 13.165683204689104
Sb 15.914775546157557 13.064426919614316 11.308533049904309
Sb 12.056121075723267 15.093695507265629 12.430809829680602
Sb 11.783735551947082 12.280472352294943 13.072383073842738
Sb 20.824317446510275 14.505961224281583 12.260430897224323
Sb 16.5177056024314 11.073461683710216 13.34182937633074
Sb 15.57479327193763 16.450174929701646 13.58962764036232
Sb 14.500510025996803 13.057019805872283 13.935579356665064
Sb 11.436232179713697 18.604383409279023 13.271315763802528
Sb 9.544811361686428 16.502588849840375 12.457736614328281
Sb 19.033324508658435 18.059788272017272 13.657423970588551
Sb 17.847642093750526 15.217063100567708 12.05092787466978
Sb 20.78023237575087 12.910124967071416 14.64480723424662
Sb 21.70386449335989 17.09958860198454 13.06192909910568
Sb 16.65426257532891 13.736446470165088 17.298066819192822
Sb 17.884289958794906 13.225579065639218 14.690762182822128
Sb 12.680270940085956 16.551259331504678 14.964824370334858
Sb 18.080201767941666 16.322765422714937 16.216940696490557
Sb 11.143778529364896 13.676599990495477 15.545204143929075
Sb 20.67072634903165 14.800277546688395 16.78020652351651
Sb 8.755580796409188 15.292660768184966 15.00882562925815
Sb 22.21804997295237 16.964306702269866 15.914794081564457
Sb 17.523952345541392 11.853063054221533 19.282867404318907
Sb 13.628168185544794 12.52375284678346 17.48352174743735
Sb 19.666042010950125 20.22175350171652 15.452873845784035
Sb 13.729162609483131 15.243692009247516 18.477603929981562
Sb 16.904310586163003 20.71035128889478 16.29067769997373
Sb 10.634463040353065 12.431435025737109 18.09348918790806
Sb 19.90557106506663 18.26694154188113 17.530436378829844
Sb 10.255229160899454 17.014697340370343 16.716963559454435
Sb 14.086873376125192 14.149289065936399 21.1502217429522
Sb 15.917778252051232 18.203964406860667 17.35838119378237
Sb 14.82610976616401 11.3791332284304 19.907752698258108
Sb 17.56147868995122 19.77597636206379 18.975258530011224
Sb 10.800525780034583 15.205116481983415 18.91823238724999
Sb 14.991187682771494 16.75712121704224 22.625431760608578
Sb 17.479942915782377 17.172260783768326 21.38058380712863
Sb 16.975890238588903 14.281443901895205 21.084596193096875
Sb 17.280892047573495 15.530705810146427 23.740965140041325
