47
Energy = -181.81314854 eV
Sb 17.107622021779175 10.07659194064298 10.373687773472305
Sb 15.157416651904054 17.05999396626888 10.724165979832453
Sb 16.7129175716919 12.994010055717636 10.520073462089217
Sb 15.436999152605893 9.549656454101555 12.639444329558241
Sb 11.846845378182653 14.589945327369039 11.053045232291984
Sb 18.932297414964715 14.523085948080762 11.770268525556475
Sb 13.137774139522337 18.947065362183587 9.751538499306152
Sb 10.824575063251183 19.409312111081828 11.472800033960283
Sb 12.607768782413975 11.827650338395042 11.751436417317999
Sb 14.598866665327815 20.98429408889215 11.22437727187796
Sb 19.623241071769627 10.323203449086455 11.671333400517238
Sb 15.132778932730337 12.692716702211953 12.909111307412514
Sb 17.48232472064045 16.059117806194955 13.723307393071678
Sb 20.88796851644947 13.234666442034772 13.495041377204627
Sb 14.69857301263489 18.154620537245357 15.014685545048538
Sb 9.776487194727641 15.312985489280514 12.958268068985126
Sb 16.94339523499765 8.528684177024017 14.675240219144241
Sb 19.720542515144423 8.677652308833949 14.006889610393966
Sb 16.209726843355547 18.94492213707008 12.661522158118984
Sb 12.273785790188805 21.538775976601883 12.818787605092682
Sb 13.9593854301372 15.488945525488406 12.816626604326945
Sb 11.510101409850167 17.58899659563159 13.553054353591728
Sb 11.180868789079124 11.419225041304633 14.244027787481867
Sb 13.061355366551782 20.52474146831388 15.525990213104413
Sb 11.524698508361544 14.209842549305337 14.971450705648714
Sb 18.73114005028132 11.410250995776837 14.170112812711027
Sb 17.92181051629945 14.790137602073168 16.44329558053555
Sb 16.832280438394623 19.565120943885802 16.40107739224202
Sb 11.937245770948543 16.994122558398473 17.20110052898544
Sb 15.46400969730089 16.094562790001568 19.021294984098073
Sb 20.7573244011846 14.830004550490452 15.89271304851235
Sb 13.333551762258947 10.140042425222568 15.710878906283819
Sb 19.859713206516002 17.343404891452384 14.781558054436754
Sb 14.89696513908892 20.610756134812583 18.23625234604957
Sb 10.524609344006937 19.131935154737352 15.825154475003467
Sb 9.880832152964556 14.940027358522492 17.281286319734857
Sb 14.952852004681889 12.413165537030835 16.57607562474559
Sb 17.52055109849743 12.094085409095804 17.99766108307986
Sb 18.601221242961678 17.494617719802047 17.456957496380344
Sb 14.561290013344266 18.56465452217983 20.209763174902903
Sb 12.505818830454428 13.87697247073097 18.091385955084824
Sb 11.851125979084578 17.502744429546144 20.059141763597736
Sb 16.004450209474385 12.55920507882775 20.241225867584724
Sb 13.192853600257594 11.09286789552674 18.472960442970454
Sb 17.829857828383282 16.274895343073055 20.634711580567682
Sb 13.302399426029702 15.011308818279234 20.672011140181123
Sb 18.31663033363034 13.731264796478374 21.424056772210086
