44
Energy = -172.03709843 eV
Sb 14.488445692771434 7.952333105143811 8.521599587770693
Sb 14.322417175195403 10.71125383605969 14.155960409852442
Sb 12.84316341169095 5.709280938623155 7.800509024715955
Sb 9.989549424975632 9.254305427025738 14.167893124144996
Sb 8.287095998650294 10.746656500467603 5.7511419954202925
Sb 14.496579277831346 14.350465539751367 8.413308457934837
Sb 12.858074894928142 9.457756455642748 5.580187536546362
Sb 15.149058467804895 11.601812642876117 7.897213622191161
Sb 14.61188457501801 13.472586064563963 5.743476815411627
Sb 7.959802081591914 5.870030008066618 10.940574648982338
Sb 15.359674266555556 8.463746263877926 15.59803543014375
Sb 12.769036498652634 9.569361872353026 12.015207873928025
Sb 6.250233011327424 12.069859670603487 15.955008295473716
Sb 14.993420178750245 7.826267607851195 11.38129139134481
Sb 9.293677232386607 15.454930605779897 11.425282699104928
Sb 13.241408735606901 16.573797472077196 11.31290622041277
Sb 6.181783548723216 8.547763056233284 13.635031631073279
Sb 10.340288862643273 12.68752689824542 14.462576543284667
Sb 8.427303187908597 13.964931428715502 8.21203806376081
Sb 10.107769632472477 5.243217822204241 8.97162893232984
Sb 11.616753760004995 13.855230870825691 5.515317532004261
Sb 7.617750409871278 9.519607655914987 15.92900358348823
Sb 12.63228383888931 10.173543077285833 8.345516738756517
Sb 9.849213976182039 7.913194867698332 8.263807396372853
Sb 5.9538865693768654 12.751582474633553 13.17078417515742
Sb 8.39587420824382 13.616098130170265 5.431289928956782
Sb 7.583139097077375 10.599133636529091 12.149381798510946
Sb 12.546810389057367 6.719768004144562 12.39346613119488
Sb 11.36299740523635 8.027627369658981 16.40527182097078
Sb 6.306545653601656 10.336382680122044 9.563779408099428
Sb 12.260868715161083 14.864629571199758 14.69104862089592
Sb 8.89145209872078 11.150158458998362 8.58479818339403
Sb 10.600141537829362 12.889901024199261 11.554306584319232
Sb 11.51625511009399 13.883937340683971 8.429298605101502
Sb 11.048192354787204 17.003131012258017 13.167364914025033
Sb 8.485911258930082 6.778023436979295 13.617060732896755
Sb 10.849063750048993 11.222174969795601 4.5078500168211155
Sb 6.964999622970067 7.596475859369283 8.856493615908503
Sb 7.8941649540834815 14.154244787885826 14.795297655787435
Sb 13.381097204594285 6.401331110764536 15.124780175207633
Sb 13.276374153745008 10.167576590613276 16.765414229713002
Sb 13.29913268662327 13.79055628302295 12.184822222008464
Sb 11.076731317321078 16.567687172876198 9.398890298694484
Sb 11.218887491696522 7.066913681378184 5.819905197593057
