41
Energy = -158.65918538 eV
Sb 14.145423351635252 15.563891215235394 8.721054158832475
Sb 16.22146041851783 13.615098579599353 8.916663587551795
Sb 18.22213199535538 14.996365960408196 10.492737618053692
Sb 14.586051222926372 9.662726798800074 10.84406255302946
Sb 11.781854611415481 10.088594077869347 11.342883233497309
Sb 14.473801964909894 16.97366398121872 11.147661710384083
Sb 12.298045968919427 12.565891772303685 9.748729395881861
Sb 17.563689577520137 18.104816302288608 13.310113576348092
Sb 16.37504532805691 8.923981398202224 12.982150719186489
Sb 13.61122916707501 19.41961672228026 14.23326985337341
Sb 16.428132429380575 15.41268475959905 12.701411978258397
Sb 14.748412948371026 12.540193543488622 11.156232371254829
Sb 10.977978504614034 14.537586647248894 11.404057424462838
Sb 19.19732626023247 12.613881080240393 11.817279106757976
Sb 10.932129257855678 10.786018941534406 13.98662560800726
Sb 12.038666148885197 17.329526989164286 12.801811896308125
Sb 16.97930214946582 11.667345599475908 13.694297231012923
Sb 12.914552776823681 14.68533297330549 13.58637209909545
Sb 19.139945687578063 17.865152576791097 16.014622511311657
Sb 15.545898695642899 9.668813963033523 15.627492787529647
Sb 10.298308934393578 13.61372673681731 14.076537618404188
Sb 15.354756748650809 19.66260383052104 11.964559242505944
Sb 15.425081947113583 17.389381910518257 15.211948690195225
Sb 20.512173392412684 13.542614121188036 14.237667323965686
Sb 18.45957695132425 15.127986331312565 15.526932065643633
Sb 15.57727541311711 13.625591245263939 16.632322928674174
Sb 12.793495295790684 10.094928891027893 16.13440169025533
Sb 19.25663585742716 11.147876554319248 15.378853562070946
Sb 13.062711473660729 16.302061098975532 17.241567021213516
Sb 10.607125145982446 19.84463881453044 17.195595421822475
Sb 13.527492741225387 12.115168628664776 18.099496711419604
Sb 16.77565962659109 18.0983002298312 17.665911736323597
Sb 10.542527499808495 17.183265901832346 16.027237985323744
Sb 17.722076304244858 11.960941939077848 17.73390405382558
Sb 19.105601539714897 14.4628648975699 18.24904178796149
Sb 8.956421155954226 17.755299666705877 18.375249386505082
Sb 16.43527215697839 15.405262997538951 18.846791502496302
Sb 12.805498481187188 18.951851016003516 18.852969287638253
Sb 11.32532057731047 13.919885863625545 17.658343629954977
Sb 12.486618355839159 15.265050342988348 19.939841534427973
Sb 10.890062293695605 17.610285457204046 20.52206775683749
