40
Energy = -155.25579945 eV
Sb 13.158344519381275 18.444190506271383 10.826296085306193
Sb 13.489393252622202 12.854569488530084 11.162561912703024
Sb 15.749109105350708 14.583916970154421 10.519077889534556
Sb 18.448689901108235 13.574043491061197 11.207434779932226
Sb 14.88048464693096 11.549843675147423 13.378009243713253
Sb 14.910706006666294 20.67856727468724 11.453100930511942
Sb 12.374797298970094 14.382076677755617 13.377086120556614
Sb 11.219153658793942 18.59067778515583 12.893231801151082
Sb 18.503951277277366 10.974010436242963 12.486475005775688
Sb 10.258707396517078 15.929966134252007 12.16575980558115
Sb 18.71212710804055 15.733650763606361 13.111991285757917
Sb 13.518005662530287 20.850556704414974 14.009468708653179
Sb 16.416561935666238 14.795332972295313 14.55384025651151
Sb 12.707036772673458 10.96999509189277 15.27160766286633
Sb 14.966498164474505 16.62681836573193 12.449655907725974
Sb 16.952100363559246 18.771942939152773 12.320095000218643
Sb 14.127724989404777 8.823791342597511 14.001669979668948
Sb 10.641322999897431 12.085513842817244 13.566945409607762
Sb 21.11285030640104 11.048374670720293 13.848380532741245
Sb 12.512746306792476 17.434635757778462 15.346176773838398
Sb 15.038530383832502 21.152639666103468 16.45118326933256
Sb 21.525652990769064 13.070001167544406 15.914284336917838
Sb 9.273951855799325 13.168357291196218 15.867519766317251
Sb 15.437972819907964 18.751145940004335 14.901416490166557
Sb 8.58617279452466 15.659984511995043 14.550488938371256
Sb 19.732971386160024 9.800456451121748 16.108364233344965
Sb 16.011304197337775 9.439947785899921 16.150666449881623
Sb 17.673152329869662 11.620670877387033 15.155662374909204
Sb 20.315603150416194 15.602426616987144 15.56989037147357
Sb 9.76527547851723 17.572555873265422 16.328113904541617
Sb 20.194128871173938 11.842071869344968 18.161976852721942
Sb 12.447010152551698 19.79615102271951 17.09394790115612
Sb 14.55153015175 16.38140758307399 17.439425877806446
Sb 11.23549886625594 13.530335358573533 17.97649240955363
Sb 17.745017636571415 15.616237648519062 16.99034366746953
Sb 13.838813057559936 13.716302760076147 16.677489092611314
Sb 10.329611569664369 16.15852116385082 18.73841125891054
Sb 15.200300285693755 11.519825139692976 18.147267060082232
Sb 17.6219821993998 13.130158653541486 18.55672780896291
Sb 12.773927452033 17.727047031683437 19.230182145959773
