42
Energy = -163.75157827 eV
Sb 11.94646491973727 14.03217016530671 8.885217879594693
Sb 17.78596648684238 12.495669741573398 11.213078330796462
Sb 17.35268007698558 15.355525435815366 10.99035602883016
Sb 12.338284792656543 15.632152975774199 11.278974000544824
Sb 15.403031368965847 18.595718652286532 11.339137146597501
Sb 12.384733562880411 11.748497790868331 10.535411895452329
Sb 12.695202817308228 18.351630877181975 10.374303491050435
Sb 18.261514254836317 15.823062764276534 13.671283422802906
Sb 9.673692703495933 12.409986206320218 9.638282198455084
Sb 9.530621133529356 16.09026371283658 11.177158229258671
Sb 15.154316650485448 13.629619846717164 11.823475362659732
Sb 15.433036050069921 19.987435608683807 13.870433641990656
Sb 10.983245590380417 19.633365344318992 12.356066756195737
Sb 11.281088729831444 12.276902152602801 13.199072916438919
Sb 12.438475381527114 13.866755197205345 15.31119840984802
Sb 15.462646295649504 17.089899290588356 13.831252237188327
Sb 8.873164702287118 13.491662121662738 12.214056460716447
Sb 16.5610878641449 11.268692046086134 14.40758103776099
Sb 9.644324504011605 17.464656631503573 13.716201479980207
Sb 15.6648549425278 16.91271411131661 17.656430375892178
Sb 18.847959107824565 12.91754344869322 13.859063895847973
Sb 12.353736949609136 16.648662540020783 14.414912502796895
Sb 19.38309152486243 17.957848544657452 17.75845636802818
Sb 12.668884036853056 20.61715538020306 14.529271037350266
Sb 22.158575551159117 17.711144253376442 18.46402533044203
Sb 17.41440971187706 9.808677932270092 16.783739400981812
Sb 15.36432299174945 13.927333375363801 14.73983715526976
Sb 16.082507144820568 19.76420019854051 17.309444374959263
Sb 11.717519515303168 18.708141200753815 16.421208159250355
Sb 18.322988589320644 20.37673760474564 19.0283702279556
Sb 13.659908538983643 18.77273810510947 18.57905357219379
Sb 19.60271042563244 11.407141400382732 17.792523294865354
Sb 22.23685612197284 15.141207787128632 19.331759676271947
Sb 18.366024318473503 13.951933027547398 17.392314449020244
Sb 15.745623013772468 10.610994529560388 19.00948294077483
Sb 15.679989649313512 13.383326263641745 18.32655608123426
Sb 18.76146254207847 17.919636090473634 20.55922390470064
Sb 18.34042441516328 10.55950689147594 20.25022647498393
Sb 16.016350517930974 16.99712976692195 20.531916647927947
Sb 19.448656051277958 14.909961259032647 19.887800536994796
Sb 18.449428762746273 13.003697138013951 21.779138409863332
Sb 15.850715983423656 14.089480881463027 21.10328254853377
