49
Energy = -187.88015061 eV
Sb 17.985992156385745 13.071054443980026 8.928665939722741
Sb 16.488117355080824 17.378650018574817 10.192572033655464
Sb 16.258415690770505 14.535039850878722 10.786032945050195
Sb 14.243372365352435 10.916471757284581 12.97289136514737
Sb 13.099201818533452 13.856354730885304 11.40806788223308
Sb 16.797124555240973 11.187846347262267 11.277388694317212
Sb 20.316249614213945 13.10295816915138 10.414370390220967
Sb 19.299974046825987 17.846011936377266 10.904593929671853
Sb 11.087496066065386 15.80431529923531 11.750876056987643
Sb 17.619231089269924 15.22540081435087 13.297429031951902
Sb 15.22834732219183 18.696507432403166 12.399972813765817
Sb 20.261470699817018 15.388239995260166 12.21175848735328
Sb 17.82667000697266 8.848937014970506 12.69998712250243
Sb 14.241424672179372 13.727549256692821 14.020806720086018
Sb 19.14139579554481 11.50811841325859 12.872309257641637
Sb 11.843834067100516 12.336527610601113 14.617978928781442
Sb 12.66234609042378 16.651809737619423 14.14699649906229
Sb 18.756315870320986 21.033575181144805 14.575976666540047
Sb 16.06704803656893 21.36233836732277 15.480400742333217
Sb 10.285105602398739 14.939328679869343 14.52625333211073
Sb 17.894013223929427 18.51162090165386 13.393389149147572
Sb 16.712789700507074 23.34551347788931 17.406970592428333
Sb 16.347587489160976 10.245927290666819 14.850873834774967
Sb 17.835028289759332 12.985366111561456 15.17271073662307
Sb 19.609976674939485 16.540447858772062 15.883989732018973
Sb 20.155373930074884 19.418355764329878 16.537844312878395
Sb 14.959938499243627 9.219455951808671 17.345585258651735
Sb 11.613493654957452 18.305887999597267 16.406900962345993
Sb 13.164035180203676 11.574039928642405 17.180904609930142
Sb 9.509298253377201 16.386833290875174 16.949404842517517
Sb 16.10684539698144 18.906564660343996 16.938052510996673
Sb 18.47579216998938 22.129510763116336 19.335227479818403
Sb 19.664548873305627 13.015853733254499 17.52914969078835
Sb 15.400478725991007 13.462673679268036 17.43447003522269
Sb 13.648227454359686 16.354703958082556 17.191305853279886
Sb 18.32246750733173 19.311746048185835 18.723628224858135
Sb 14.044734233231322 19.81500539285727 18.822768609534553
Sb 21.316929296252432 15.36381182299779 17.918733617787133
Sb 16.47242190970965 11.148657050988747 18.821635042083198
Sb 11.935885714937509 12.571828962026052 19.67561525682169
Sb 18.447014742244555 15.549882450257753 18.33769015103119
Sb 11.517393704964261 15.29792224997872 18.80362247387972
Sb 14.445998662088721 22.796538217778327 19.09835727920144
Sb 15.441055880630259 16.324898918973936 21.00864659235261
Sb 14.658792700115308 13.169069461652766 20.339522282246744
Sb 15.848293061572969 19.49414956880955 21.15304424226503
Sb 12.972962870662943 17.537191271101218 20.577483202329226
Sb 16.30027474108844 22.49754277332604 21.225278220949267
Sb 14.348100866373926 17.98085171332163 23.130752693342945
