41
Energy = -159.32817755 eV
Sb 11.195253624611176 14.24069792170258 9.91937822588976
Sb 14.270618117195196 12.223328272033566 8.503095631168662
Sb 15.374333997155299 16.56301516283689 9.528302638409723
Sb 16.55160308407795 13.93031491971346 9.091952703019304
Sb 12.649837364791674 16.674736605192685 10.562462649818436
Sb 11.296864924137072 10.728178792971706 11.847357403314435
Sb 14.262944575237292 9.527836060009406 9.446783478624244
Sb 13.301782759795996 12.747515880091843 11.192667615112136
Sb 19.39782367494016 13.37328876687294 12.163155066375438
Sb 10.10057413516504 14.781538722450044 12.58934100973904
Sb 15.367443580869457 8.642478905289313 11.919812351738189
Sb 16.113499620911853 16.503064482145966 12.377282921669046
Sb 19.192459952662308 10.831934769143894 13.591691549094943
Sb 10.36887178665149 12.313730079877644 14.131805735898974
Sb 12.844157259945193 15.333587093254044 13.203169317950705
Sb 16.533810003990318 13.656622865156637 12.00588877368202
Sb 20.221087394667396 15.29377882828745 14.110657466310661
Sb 16.26789557550234 10.765327689269505 13.641205826127985
Sb 18.783361129567815 17.484812183823536 12.906591547982199
Sb 11.545360501842463 18.794329748142985 14.575850995003
Sb 18.64371453873834 11.684565255935112 16.301709287743737
Sb 18.75121028161787 15.338295134058617 16.649298780891893
Sb 12.072005414704172 16.39002189902814 16.007138087468146
Sb 14.348578384388189 19.630149890624644 14.943210208414222
Sb 17.996825329036977 17.9913424917251 15.710527744460991
Sb 12.720242532548586 8.530211335133108 13.149832756791712
Sb 9.834763173309765 19.625962347490205 16.883107099851838
Sb 15.308791626304641 16.96363806909507 15.659199887199264
Sb 13.234064486129046 12.308691574823385 14.709354019242756
Sb 16.66637520216157 13.707482567507995 15.442889713664464
Sb 16.96178195152994 9.360411994222963 16.08096984016701
Sb 9.394413538698569 16.748510452836975 17.245918008018975
Sb 14.60253377617444 20.200302291125944 17.80878721590342
Sb 12.516256444992363 9.741025097824863 15.788161325399981
Sb 15.656795152261104 17.578344737655218 18.524241445501204
Sb 12.203372267546621 18.706471787382355 18.18250340623791
Sb 10.660653301793994 15.779702039754616 19.691991813731537
Sb 14.4828615101831 13.07618779468357 17.282358394237082
Sb 14.73159841916963 10.202828685844398 17.66624270028832
Sb 13.621131139328043 15.94691995109718 19.943496104631382
Sb 11.9009957125715 18.027364100789363 20.969156500130662
