44
Energy = -170.91261831 eV
Sb 8.045774978796906 12.563366507657854 7.590987375857789
Sb 7.867691264199899 14.430228123690782 13.305285174976728
Sb 10.09211121233292 10.807497827904538 8.58214614368649
Sb 8.421781169161907 10.657543921404855 12.376241463759794
Sb 8.084809679307973 17.32118335074985 13.373580391045582
Sb 10.733193784600553 12.863280254498024 6.681243420828949
Sb 8.660007468213042 14.387041557410198 9.91705465272995
Sb 8.79330562318862 13.804787184557902 15.971021770484036
Sb 10.518184810198559 8.630776083349739 12.138316866626031
Sb 10.357360659094661 12.351588087799655 11.085587011943666
Sb 8.811697437154317 17.391727920447387 10.592472981952623
Sb 8.922986783528971 10.999830242030546 15.239983909248918
Sb 13.85593347652695 9.969270663781497 9.46668615223317
Sb 11.70888817480698 16.36043057454017 17.663394277131857
Sb 12.448768518685643 13.583202001325745 17.905928208724255
Sb 14.35215045220925 12.406055698802284 8.051820013768666
Sb 11.020490642008491 15.21824193734781 8.428603886926277
Sb 11.651156264986524 8.282801636930685 14.81895772526407
Sb 10.720347269636418 14.161578742602217 13.873265791690244
Sb 11.008072211680636 17.04836010178519 13.853908684681178
Sb 12.74743696105155 10.494041136428304 12.13966852169816
Sb 11.756847273154406 11.13479429309553 15.250194696279255
Sb 11.569258484268325 17.32674077260303 11.054886521777776
Sb 13.53535015909905 14.619588888494002 9.707237978998581
Sb 15.00408326581906 13.653066648271244 16.502629663042338
Sb 14.206501351838279 8.27844144032284 13.402501567852008
Sb 15.1941029397681 10.353833880633186 15.127558280020898
Sb 13.385745446971423 15.514236082492836 19.883941199028282
Sb 14.918888072832578 13.226406501760277 12.103838408342309
Sb 14.101982622959104 17.49089620425814 16.53068556222852
Sb 18.042347749501058 10.169974314307934 14.83269109622592
Sb 16.03736513812083 12.006044139812278 18.746751067692525
Sb 14.134649203684972 15.857899453331127 14.169669318586372
Sb 16.21280516618103 11.497910337041716 10.080579746579977
Sb 18.12155074306531 14.845577133681052 15.499418509460833
Sb 16.721517457035944 15.357561418223215 11.157733503233862
Sb 17.66823716829933 12.767143704421612 13.603818765504576
Sb 15.594867832771104 9.328469750886455 17.84886685441994
Sb 15.795778659044748 15.84212526295595 18.22930104296535
Sb 18.246842604542074 10.490495167256176 17.73287157459159
Sb 20.80174863214282 15.723332217375232 12.017235775820625
Sb 16.819288237818316 16.77850707931991 13.705515840081206
Sb 20.28974469247002 16.41964488644897 14.553986305192842
Sb 19.061133873374377 13.627262484095958 11.244717912949838
