47
Energy = -183.17523282 eV
Sb 14.9077008977697 13.095251178683705 9.17423686348425
Sb 13.557726346803 17.19532940915402 9.248730122433711
Sb 17.0489707740491 14.890775387913171 8.394225401243062
Sb 13.427590675437179 14.821218012168336 10.892455145397529
Sb 16.324031644776404 17.703877573454335 8.781722155239784
Sb 15.131757101796188 11.645782182473722 12.07131488200636
Sb 15.290385080429223 14.38232672416304 13.094905495908082
Sb 17.620230788988707 18.81476309524703 11.156169020725253
Sb 12.382489174689939 19.054418256436314 11.09599673069421
Sb 17.91862143389185 14.99903448063365 11.109751037534458
Sb 19.833945835414116 17.05386913715687 10.525778958572864
Sb 11.422256585261554 12.778667763000438 12.968870363539448
Sb 13.045853624162769 10.61776526934211 14.108282862472128
Sb 19.655977609738173 12.727624460901865 11.54521209204303
Sb 17.863741909151468 10.924028068105924 13.000581059037634
Sb 12.924431196900796 14.444903149087729 14.78190528433188
Sb 15.95970135539966 17.603874566985528 13.28635137328406
Sb 14.248288920638636 19.948674110978345 13.121721832954279
Sb 8.769717924934856 13.614720270290931 14.003799182454866
Sb 9.108967369770202 16.22738855987589 12.826797807532358
Sb 11.948052782098083 16.872164308356858 13.079155017374324
Sb 18.552779961288053 15.598328332737697 14.353978734705215
Sb 20.862672008144063 16.90433343501678 13.20198604404733
Sb 20.978786968951766 14.06550511603179 13.790364131711987
Sb 12.309362355451775 18.94300117062537 15.113031884123659
Sb 8.765547153388638 18.157083967821976 14.86494521474909
Sb 17.435302360342735 12.23805493282555 15.552867846034118
Sb 17.471736438058052 9.695724079607952 17.072521486234923
Sb 16.456531440486312 18.570382801607572 16.052154602353333
Sb 8.37027494486246 14.10986125880363 16.81621390193653
Sb 8.096704723540022 16.921077216233897 17.163327624827733
Sb 13.991239743161117 12.0258254583927 16.484300967265735
Sb 18.94894038696531 17.178927573321513 16.714154935797957
Sb 13.984125062409174 17.021759161298746 16.596845616126775
Sb 19.92945811762318 12.743853810607497 17.030017481376778
Sb 16.04649056585872 14.430301553701533 17.55531648685343
Sb 11.067575517115435 14.922408516762323 17.419712929100484
Sb 18.891069479766653 11.073778863556681 19.193661848169427
Sb 14.934575752674752 9.898015794235574 18.416076406057364
Sb 11.699830065499661 12.215271889816705 18.261185331630518
Sb 11.29562276061663 15.911684921078095 20.211133048679855
Sb 16.21478740738754 12.240408811079778 19.481111161524453
Sb 18.736143643928873 14.908853575572278 18.543337074104524
Sb 13.472235252029893 17.648376678530365 19.45706186819782
Sb 15.85190648433433 16.123491169614578 20.01475789295017
Sb 12.340956230837524 13.328603842309938 20.891166085615147
Sb 15.06034673077259 13.864070691995918 21.636247295158874
