45
Energy = -175.28572964 eV
Sb 16.369561611382704 14.591348670114785 8.801323659653463
Sb 13.764387207546756 18.52001517601745 9.640438559755347
Sb 19.066872373702598 13.935299055050967 9.674325953126852
Sb 16.064386227866514 16.99408563163946 10.517970482175132
Sb 18.463526937153205 18.551954207553432 9.945663549132986
Sb 15.566023460614312 12.20191264261029 10.407430669832111
Sb 12.323775334490797 16.79964664733327 11.52868180594197
Sb 11.836050820746571 11.375963459591414 13.241133754470729
Sb 13.95808537626843 13.250623230138679 12.527486440747575
Sb 19.198732660647533 16.223354928062566 11.435121358112823
Sb 17.665493159057814 13.195488239883074 12.117256148121088
Sb 13.986588743554979 20.475925218210957 11.809840834735967
Sb 11.374014969346947 19.329205853601618 12.49173831548582
Sb 14.642151778035547 16.415743369875777 13.31310212167304
Sb 18.17950936457585 19.78411921149967 12.574466249015533
Sb 11.987525604698083 13.114642140683337 15.518156138807564
Sb 15.612604873128648 19.162957079255726 13.768304677323643
Sb 12.9385672796216 8.939863869979371 14.430948355796795
Sb 15.045867590441942 12.363669223117347 15.304117390602956
Sb 17.815338387736343 15.8475493089413 14.33553783444667
Sb 19.73319349434692 11.842990049573029 13.634455115261966
Sb 21.50948611374938 16.55353483407151 13.105779205598807
Sb 20.3426527502332 14.433329207896147 14.850552949689979
Sb 12.986590793138603 16.412296778996446 15.769857537722327
Sb 19.61718033859637 18.176633536786564 14.590841191000054
Sb 10.624342257900222 17.573752956796344 14.696540239099386
Sb 12.80134425152923 9.262452239936456 17.334175414909506
Sb 15.583431233745113 9.886224485282858 13.946106246866359
Sb 15.048724261487807 10.894476066731837 18.02979970116938
Sb 13.950892977829971 18.86787673760348 16.959438531422208
Sb 16.204756471402238 15.211924005368042 16.832141352340756
Sb 18.0197660902672 12.021959088240129 16.0324995766074
Sb 10.687730352198841 11.21889363239479 17.25765393636196
Sb 9.67056657077061 18.18296576387497 17.40138844007892
Sb 17.827254721089933 13.863982445029315 18.703765068814707
Sb 16.263842752370497 17.694382203137593 18.2866778544991
Sb 12.011831478958324 18.68111747447945 19.05912777838598
Sb 16.946827923514725 9.378778136625202 16.49186816795224
Sb 10.018176391685857 15.300935218483483 17.408630723882762
Sb 13.533491727197617 13.878763776612594 18.630519007534396
Sb 15.404804883349152 16.729044947250586 20.91021141277169
Sb 11.407340580688828 12.287369888219093 19.83858539144338
Sb 12.593380175403976 16.10704672367382 20.217915263267063
Sb 15.67132944432256 13.859178399020195 20.62813096769003
Sb 9.763743675257174 14.688469712405388 20.082040098322274
