41
Energy = -158.68669701 eV
Sb 12.260997652625662 15.118092677469555 8.608129680236354
Sb 15.550182813939385 18.901511807406397 9.178374721002806
Sb 14.212754254757867 16.39060379008697 10.307404133689142
Sb 15.639083837639959 12.676662744390912 10.655716608023992
Sb 11.49312356647084 17.313412996460084 10.427904779902258
Sb 11.13152841469572 12.84435326340413 9.92489947897213
Sb 13.250244574936785 20.18301453845547 10.115024455251696
Sb 14.791066667734919 14.694719003156655 12.649118406226155
Sb 13.229764063534233 11.045128269704229 10.788823577320978
Sb 16.666181351233295 18.92751426471707 11.85298860558836
Sb 13.515641590142781 8.677778714181066 13.413243042040774
Sb 17.14325919753801 10.874639452630516 12.356453900687502
Sb 18.916879821133122 13.150686522283202 12.311223545725019
Sb 17.287089248076843 16.246061898518565 12.893002001149794
Sb 11.776712035153945 16.213516564213254 13.130510248795245
Sb 8.996185841661687 12.914257230064639 13.479309434014581
Sb 11.872062326847631 12.92208789207566 12.72664448268657
Sb 14.993272292651154 7.3643868677381965 15.4549667041
Sb 14.204205507113237 20.18260373246905 12.847095506690719
Sb 14.914272926921434 11.175287584391418 14.223063568929737
Sb 20.613265460597606 12.931817532962087 14.476275289205166
Sb 11.777317904944391 18.975745516533166 13.916839247776348
Sb 9.152403050827964 15.740996186502736 14.352638869606078
Sb 12.04603010892642 13.733676138430402 16.27362411260496
Sb 11.854948628544287 10.573568230860442 14.969980559993605
Sb 16.408378089111178 17.9521169548058 15.120764751220433
Sb 9.012683208197348 10.862343332501998 15.53524111039673
Sb 16.889300517672577 13.58642575672265 15.398711498197647
Sb 14.303302439880051 16.206909314469765 16.079965374322928
Sb 15.596178672760965 9.845562658194593 16.75318156395667
Sb 17.939019695430055 17.34421206396129 17.499636122641917
Sb 10.414334791486564 16.019625733208077 16.985706482312033
Sb 18.677421442444977 11.381310608581 16.02099273507316
Sb 19.22150720791899 14.9217271393093 16.496414286291518
Sb 12.372748560964249 18.249136861521002 16.641489499734764
Sb 12.326904607894447 12.33320086904851 18.77492508144899
Sb 12.812304081273513 9.743683528510282 17.585884650027275
Sb 9.652603727784763 12.72051985139043 17.645999601670724
Sb 18.820651428337474 12.919429284956395 18.53964841460888
Sb 15.960494510014614 13.310140760536713 18.184936414578484
Sb 15.609528956819977 16.13736693981804 18.70908252993931
