48
Energy = -186.78539732 eV
Sb 15.55004956566699 15.346518000393395 8.50852327619852
Sb 14.651490697392735 12.656039425068466 9.24432632494778
Sb 15.179061312216094 17.450439473184115 10.473954636038929
Sb 17.760555928879583 14.399328954726561 10.169051628883718
Sb 12.00345854063505 11.652228946016402 10.06993670927711
Sb 17.887458190703327 17.821291531950497 11.589719858656352
Sb 10.742564046311683 17.18345964195567 11.551516758937746
Sb 18.917790120103643 11.74959660199049 9.668119588264734
Sb 18.861722014225627 15.47655048245772 13.027285296190316
Sb 16.673267320032252 10.268722234656755 10.80305906388602
Sb 9.847394346367382 14.719109586222176 12.86571047740206
Sb 17.73350849518301 9.101131718006904 13.223677323712097
Sb 16.30041910342074 15.761122265853517 14.418104833721568
Sb 12.67706796592718 12.433575075697556 12.73563442010023
Sb 13.405624979170737 9.705156426186617 11.722670846215097
Sb 13.349631199075954 15.9634204399281 12.17571079674366
Sb 10.694135982343317 18.82885262838732 13.92150786198803
Sb 15.866984565006522 12.838470651992147 11.852327375828386
Sb 16.70725964238462 18.645841928400156 14.125918606695153
Sb 20.454215339285728 12.127798401751846 12.065954903006615
Sb 7.920053995851388 14.888696576251034 15.056090695785384
Sb 20.20391458700453 16.35372108052483 15.577384534097332
Sb 13.185878201212494 20.293099289605856 13.446415175079682
Sb 11.500818747211014 10.081439564662737 13.936070218733866
Sb 11.525713156839164 14.863316077225997 15.26955249072302
Sb 19.15977439216082 19.015499385080016 15.617982133891683
Sb 18.956313348927765 11.407585962989394 14.43499189166982
Sb 9.645053852245548 12.695624312139309 15.793573405332486
Sb 9.746107636734767 16.71552578591769 16.651980077736276
Sb 13.247114761295093 17.631681765046945 14.599513478403892
Sb 17.996089120047348 14.820484672939005 16.554279392692983
Sb 14.071558258310557 10.19144229150423 15.311355470932257
Sb 20.584893648395486 9.430530933767754 13.092196229842196
Sb 14.297505448353656 13.082848306309232 15.972267974819342
Sb 14.221633658563759 15.943988258210439 18.170896170257276
Sb 13.40333343010692 20.967692684908794 16.22500771258238
Sb 9.805459810947399 12.857642189796259 18.693278774447133
Sb 10.428300157445074 15.54470519834784 19.162352379005934
Sb 17.963158799575606 19.008644689999073 18.23210598251265
Sb 14.123467576875198 9.803299060196304 18.224688962885168
Sb 16.281300387303357 11.672357958796253 17.699028211733815
Sb 11.52122907019055 19.231291456593404 17.521252304260386
Sb 17.080640034531818 16.060654998238324 18.971579362769134
Sb 15.374151591461695 18.916598618996776 17.12867808123491
Sb 12.65630559907623 12.321529858797428 18.322464217819466
Sb 13.630656769957678 14.113027712115125 20.367963336288028
Sb 16.34064971653481 13.204753704606004 20.13335856893175
Sb 13.62454637602033 18.512944679119613 19.380263666350302
