44
Energy = -160.990204 eV
Sb 12.07675332 14.669093624663303 12.07675332
Sb 12.07675332 18.72614044174901 12.07675332
Sb 14.65414803533828 14.65414803533828 14.65414803533828
Sb 12.07675332 16.69400802931586 14.318797367808187
Sb 12.07675332 12.07675332 14.669093624663303
Sb 12.07675332 9.484413015336694 12.07675332
Sb 12.07675332 12.07675332 9.484413015336694
Sb 14.669093624663303 12.07675332 12.07675332
Sb 9.484413015336694 12.07675332 12.07675332
Sb 12.07675332 12.07675332 18.72614044174901
Sb 12.07675332 5.427366198250989 12.07675332
Sb 12.07675332 12.07675332 5.427366198250989
Sb 18.72614044174901 12.07675332 12.07675332
Sb 5.427366198250989 12.07675332 12.07675332
Sb 14.65414803533828 9.499358604661719 14.65414803533828
Sb 14.65414803533828 9.499358604661719 9.499358604661719
Sb 14.65414803533828 14.65414803533828 9.499358604661719
Sb 9.499358604661719 14.65414803533828 9.499358604661719
Sb 9.499358604661719 14.65414803533828 14.65414803533828
Sb 9.499358604661719 9.499358604661719 14.65414803533828
Sb 9.499358604661719 9.499358604661719 9.499358604661719
Sb 12.07675332 9.834709272191814 16.69400802931586
Sb 12.07675332 7.459498610684141 9.834709272191814
Sb 12.07675332 14.318797367808187 7.459498610684141
Sb 14.318797367808187 12.07675332 16.69400802931586
Sb 16.69400802931586 12.07675332 9.834709272191814
Sb 9.834709272191814 12.07675332 7.459498610684141
Sb 7.459498610684141 12.07675332 14.318797367808187
Sb 14.318797367808187 7.459498610684141 12.07675332
Sb 16.69400802931586 14.318797367808187 12.07675332
Sb 9.834709272191814 16.69400802931586 12.07675332
Sb 7.459498610684141 9.834709272191814 12.07675332
Sb 14.318797367808187 12.07675332 7.459498610684141
Sb 16.69400802931586 12.07675332 14.318797367808187
Sb 9.834709272191814 12.07675332 16.69400802931586
Sb 7.459498610684141 12.07675332 9.834709272191814
Sb 14.318797367808187 16.69400802931586 12.07675332
Sb 16.69400802931586 9.834709272191814 12.07675332
Sb 9.834709272191814 7.459498610684141 12.07675332
Sb 7.459498610684141 14.318797367808187 12.07675332
Sb 12.07675332 14.318797367808187 16.69400802931586
Sb 12.07675332 16.69400802931586 9.834709272191814
Sb 12.07675332 9.834709272191814 7.459498610684141
Sb 12.07675332 7.459498610684141 14.318797367808187
