42
Energy = -162.63582352 eV
Sb 11.561824633766635 13.932408449539178 9.569729176379582
Sb 12.285226571744458 8.292753752046975 12.7976303849687
Sb 11.662359493521143 9.89564143700188 10.502752125099889
Sb 18.15141288938291 20.48522542919119 12.270554810736172
Sb 10.025516292666802 10.753748340087947 12.662725833210688
Sb 9.513118955444808 13.539026294787034 11.602244076230377
Sb 18.678252511755947 17.556057800515294 12.498830238410926
Sb 21.42296997649349 17.01763509260462 12.911820899799038
Sb 13.504413787101003 14.613234645682963 11.627455602464655
Sb 17.48751295384431 14.407619391769927 12.989133289622067
Sb 15.416313033533083 20.19372559104855 13.282153459194896
Sb 18.49690287236063 11.745187851722134 12.556687618424474
Sb 13.608506240195284 12.038172422041377 10.297155127512216
Sb 14.419803863010614 10.017868019880135 13.233427863966106
Sb 20.455177016711424 13.90620623938938 13.25220866800843
Sb 19.102559144577263 20.807266214391078 14.925716679772128
Sb 10.536836228334014 18.09905753259492 13.840253478292873
Sb 12.238374352767094 11.872668132906037 14.170543079127366
Sb 11.310751238042158 14.641428463234455 13.52087632655451
Sb 19.87401168620951 17.80117194300863 15.149426165491182
Sb 15.376441326674227 17.351982944921442 13.977627123790738
Sb 18.184903158480548 15.33088253427153 15.696634553612764
Sb 9.974755209666679 20.06787267035984 15.924563493578914
Sb 15.370384394202397 9.052673707105882 15.8074795658535
Sb 20.58328231209199 13.787960863074714 16.15388626538201
Sb 16.97834818611959 14.02775824735337 18.270201403191
Sb 9.015250526780266 17.3589878771843 16.178617696690946
Sb 12.86535742463531 17.345217162768943 15.377665662881062
Sb 16.40785357473321 20.866442850395913 15.920043895110735
Sb 17.450452674174503 11.032251494297721 15.142301928134856
Sb 15.565561842138596 13.12197873292785 15.796647505879099
Sb 16.456784185755676 17.964827537624355 16.623687582587532
Sb 12.712096206964592 19.83423171789178 16.843412294598096
Sb 14.465332616897184 11.107920867184822 17.628615151701066
Sb 11.613588967017405 11.576312155530763 16.968804484369517
Sb 19.639629645750894 11.154595845109045 17.002556572287258
Sb 17.73626551217817 11.446153396211646 19.078258709769212
Sb 10.601102921188176 16.045763371517637 18.218932494478977
Sb 12.159511422046236 18.29674872190448 19.19203527111944
Sb 14.265078366285122 14.551017046038828 19.266215331582323
Sb 12.600873776099872 14.369695440709066 16.848292652218017
Sb 14.88753313702123 17.354852900537487 19.084426586280873
