45
Energy = -174.50727581 eV
Sb 11.212671183816692 15.257165688270062 9.80159070359096
Sb 11.027875071338435 13.160833017279582 11.779854354857695
Sb 16.07174119644816 14.526351876144798 9.500750379301577
Sb 13.840101879064818 16.333257465998148 9.209235848506689
Sb 10.185664876931439 15.809331057445974 12.444635179239688
Sb 16.626582825706766 19.038421347890957 9.98424875410518
Sb 14.20630647244231 18.225694912454266 11.319990495201171
Sb 17.812567061212764 16.490884745258988 10.735831857117253
Sb 12.610757434228855 14.684992601767053 13.650044829417107
Sb 15.531679673163048 13.518567886314512 12.157709561821552
Sb 18.506230173858714 11.242255024696517 12.790242216458239
Sb 21.536658954934726 10.954856161505448 13.172410922952896
Sb 17.198459724357253 19.533362685124796 13.091247068629226
Sb 15.239137862431708 20.96200830265851 14.739941738456796
Sb 15.607878571553675 10.713738359213849 12.118729949249145
Sb 16.092369873359768 16.835924115699026 13.065575507783219
Sb 12.644569298923546 19.69612315637047 14.38355460805025
Sb 19.37680629269335 19.424925616988816 15.262402899219515
Sb 20.77177068237533 12.817487433188791 15.105343295949561
Sb 15.559910401672926 10.760002373973421 15.04882050489458
Sb 19.682793047622773 10.19158452222299 15.223428615062797
Sb 11.04971897199904 12.894761914008662 15.36720951187397
Sb 11.663740691140262 20.830966326657503 16.872671985237407
Sb 17.692745025721965 20.106007471610237 17.500235528600417
Sb 14.720777726221268 18.41586966317795 15.992327661117125
Sb 18.230126271680973 13.989827955091597 13.710874304855373
Sb 15.964335917977236 13.571756225864668 15.501376288040863
Sb 9.782742342333629 18.859586241969208 17.548209912454336
Sb 10.527886986562809 14.280622098451529 17.867597425555225
Sb 12.866280446689375 10.710787477913614 16.123973298411585
Sb 11.530314411964797 16.711051408912653 16.637644983348924
Sb 20.23606560079771 14.40234395744316 18.898595129768857
Sb 19.062926548778602 11.7835078379351 18.78113986313612
Sb 18.029880899044844 17.3420794024012 16.71470619258351
Sb 14.122809401313743 19.680527732926116 18.515730299874093
Sb 19.601185478909603 18.442612634095536 18.89798305159612
Sb 12.014217318969205 17.82151180439436 19.29229420424413
Sb 19.90807260414124 12.940668931701433 21.3281456767674
Sb 13.396026154313294 14.251737070765536 18.255541175715248
Sb 13.96309864872911 11.434079032387604 18.703899364502497
Sb 16.423870803063355 13.021899933064427 18.328414854837323
Sb 15.687433424189154 17.091826651291257 19.3516608218638
Sb 17.904709912078836 14.930388681233449 20.5335343294999
Sb 13.650444318611289 15.71613100260767 20.760490602519308
Sb 17.85614367712776 17.819766334125468 21.158240384227135
