49
Energy = -191.3401034 eV
Sb 16.553389717490425 16.405096608028547 9.08583165052893
Sb 12.553045272583027 17.618636044967438 9.940529484748863
Sb 14.583137532362528 15.963011762347543 11.10156508018355
Sb 16.014735833729826 12.14201080776781 9.665679806989903
Sb 13.622491680911704 13.797968601752796 9.519884416675078
Sb 18.02825752286055 14.187453567727827 10.200628529047576
Sb 10.278388115941974 15.8162105109973 10.339314574991459
Sb 17.97394125860684 18.460933959243683 10.546843997353525
Sb 12.650864344018187 19.458776978664226 12.19081457252204
Sb 11.433419911851024 13.303213980068033 11.360422728305421
Sb 9.697543984843866 16.071866982547604 13.139949665431692
Sb 20.903351719967713 16.382260294561927 13.951681901209362
Sb 16.2735093485242 11.393334752048705 12.475534244159041
Sb 14.544043260707117 18.10507652938734 13.922985021264733
Sb 19.838872356328533 13.514140492581427 13.678012820035525
Sb 15.91293652370434 19.873917991236734 12.009973291894443
Sb 12.212927078913554 14.703150125883738 13.779965215889037
Sb 9.998451693722087 18.902088088887336 13.234302098097073
Sb 18.242049373328552 17.395410167490255 13.215213534937652
Sb 13.074461689730915 11.18864479931743 13.967279585621545
Sb 14.892884807206652 8.983550796448075 13.198310296635324
Sb 19.068761865208934 10.72247350002767 12.654681363716923
Sb 10.243682289944429 13.280515790320388 15.459490903711187
Sb 15.42523067308797 12.30561718781801 15.370192206691083
Sb 18.531560875752053 13.109360173532473 16.24471773296748
Sb 17.221250373886022 14.685027797687901 12.95268041751068
Sb 11.308932872075061 10.72716523884657 16.209104283348253
Sb 19.221795152748484 16.260866520168552 16.19112490881863
Sb 12.39610437523459 16.912857096068677 16.696083757158927
Sb 16.10486261799136 9.545086911999343 15.78572831678437
Sb 14.487829968953083 20.657436589714155 15.341391992587734
Sb 18.952235328703935 10.16803090392904 15.4037305737469
Sb 15.684188265526222 12.104620692751316 18.396283563677347
Sb 16.470684437888373 20.310609549713323 17.432151301988785
Sb 10.238242383116837 18.78003847256799 16.086108235606954
Sb 10.450328149462699 15.03851542777308 17.799483184616275
Sb 16.306460390294827 17.43498607700051 17.451151832147882
Sb 11.905101937988519 11.022454445536395 19.063140940822457
Sb 20.22343928562041 13.00463007437156 18.61783374696621
Sb 14.411535425460446 10.094504344499908 19.82553379666958
Sb 20.565375417770387 15.858934676372932 18.701010291984154
Sb 12.083215474969098 20.833289405102427 16.95173154902157
Sb 12.325584365005597 18.75745885298932 18.92921513010135
Sb 18.117726228251467 17.085657141425322 19.733435295412107
Sb 17.92252812509872 12.479335979450097 20.24240059952145
Sb 12.081868866681772 13.806399824942995 19.831466712361262
Sb 15.111075902549683 18.99241552735761 19.613384061689104
Sb 14.611965357787241 14.747587103037112 18.845640937637278
Sb 16.596626278339958 14.958266565773089 20.997275558945176
