46
Energy = -170.98570137 eV
Sb 0.33465808716362566 14.758527871776437 19.897156123119682
Sb 0.40323196249559123 17.63777661891037 2.4212971069349862
Sb 3.8029768851256995 8.636115765703437 17.542180451890445
Sb 16.798166359734218 4.4170421276043985 19.94604662758744
Sb 3.091704997103403 24.57779602336283 4.4310867608352105
Sb 19.833481738314966 15.566542731846356 21.935603934350162
Sb 1.751576701651519 23.003905504558997 16.643025251156967
Sb 3.323594234028419 23.14892132835174 1.9651692334390565
Sb 13.167699871473518 2.8363142438916835 18.625029076519674
Sb 0.7109489300954069 0.6822688449975925 16.69203152675531
Sb 23.418819577471538 20.28364656778999 16.455754814939297
Sb 23.94251178020675 15.346885520830833 1.3905786041055623
Sb 3.1451938008478204 6.215375241131333 17.528097432533816
Sb 23.05493398829901 14.846526151661104 18.101080506973997
Sb 19.761797845013273 17.99023463677345 17.769649603966155
Sb 14.958268437444195 6.4778735983262825 19.269613541040915
Sb 22.59130938544101 23.026939009803165 16.356067001562845
Sb 24.48448023148861 22.141434156691844 18.356943721770918
Sb 13.905588145821934 23.76389656951854 17.048219682389796
Sb 1.0404325326761759 21.350751647370053 2.142092789910527
Sb 23.23326866324993 20.62625449422827 4.812666615183534
Sb 24.21262726781177 23.366551351184903 3.1696291613085656
Sb 23.4861069841621 17.995145461468983 0.27843414563639507
Sb 1.483584084434149 0.4089102500372065 2.1713549121132543
Sb 11.114356965771309 16.489400519771163 17.667980209471775
Sb 21.25942632653779 16.48898315202782 19.709528240345172
Sb 14.90513854661416 0.4794416698121087 19.16363581856351
Sb 17.88456404729876 17.482923775257763 21.837478177573164
Sb 0.5507123299879583 17.44848753077663 23.133346371723334
Sb 15.336618345883442 22.25100998608604 19.010579428034642
Sb 14.08516037612136 4.2939658745960205 20.955304028146205
Sb 23.785155206879132 15.314368960270969 22.33082781875464
Sb 17.721096709514455 18.896604915360275 19.524301781828658
Sb 12.847456788713117 23.484723346123342 19.676774808187908
Sb 21.499045906874688 20.18221610638968 18.609370053995296
Sb 23.234874351496632 18.521249527790623 20.29940585513079
Sb 4.077370123449758 2.0413299680705808 1.8656584481711596
Sb 1.1602873029211058 20.545370280199776 4.921356938149798
Sb 24.79943472512602 23.882830956191174 14.641320038001973
Sb 0.9573589225698173 14.81632018687039 24.2455812432039
Sb 15.371298478834044 4.283531872196919 17.428236823788257
Sb 24.836112527131288 17.133595826036156 18.313400766287916
Sb 0.7440247097103504 23.3295525524874 5.631045884551505
Sb 9.476349652370189 14.595614882480126 17.832218669220172
Sb 4.012407700368981 4.58730695838646 1.7638831919646552
Sb 22.760386219141832 18.298556332203454 3.441852640871486
