46
Energy = -179.52544304 eV
Sb 15.125514155315033 12.540526045355854 7.116166267707737
Sb 12.418751700267695 9.845495110324062 8.182034323296051
Sb 16.159054988472434 9.300928510019839 11.009485375031424
Sb 14.069896268574674 5.736588072046034 11.796746486464151
Sb 17.331103177512507 11.735382102128098 9.953379641824533
Sb 16.318420934226925 15.10802247570233 7.781728760911717
Sb 9.696133062167554 10.725891156154969 8.676015927525684
Sb 10.203789105319768 7.870636776144404 12.547423734867595
Sb 14.868517152046776 7.478970761071509 13.97540647031804
Sb 12.46734779716633 13.72805871837493 6.831366772935103
Sb 14.113450357383197 10.149144433793051 12.879921097010039
Sb 13.151457850200293 12.408423057812598 9.304484843475901
Sb 8.413056007258895 9.741365086236172 11.0760448919681
Sb 12.473531719244017 5.965790894008629 14.026246513227447
Sb 18.47539446852075 12.249111576636148 12.606554633551246
Sb 10.110725496799448 12.097609478740377 11.180641444505637
Sb 15.764848469920148 14.13964369107244 10.422661059939346
Sb 13.772454259397817 16.295634381087886 7.046174541064978
Sb 13.36762904764425 8.51176624186406 10.599939303435304
Sb 15.958545416363034 13.20167029162959 13.688313175130288
Sb 7.82680613741569 13.884691399469226 10.998695258186775
Sb 11.817255812971467 8.638696609240755 16.516348662163587
Sb 7.916803062645889 7.851523022612507 14.356220775912053
Sb 11.027353390433092 10.14234764177625 14.177516055304034
Sb 16.151249356630046 13.48515511164357 16.553475052137465
Sb 11.309116579244352 15.38251840224318 10.357858430392039
Sb 12.352650045544037 17.7871504552089 9.111547882753667
Sb 8.778007648803527 15.761118256546586 9.027295592135145
Sb 9.172607787020572 7.463049253226471 16.961899583286318
Sb 13.629178318958688 12.083037593304919 16.266623615002846
Sb 9.0298218171274 16.408988573090188 11.819082816709782
Sb 17.792824752741478 15.041607850632875 12.395828135259023
Sb 12.08505594325495 13.380881603850955 14.147031666775936
Sb 8.260941243864586 10.737684283792296 14.768484812520008
Sb 8.128891347620582 10.120373018454208 17.60237645699153
Sb 12.308224306431455 18.54497294291812 12.862147513156332
Sb 10.793291215972948 10.295530821938105 18.662458481321096
Sb 14.48051573288612 18.525978412844857 10.935881614037703
Sb 14.025022691159332 16.21494172088666 12.599690424629824
Sb 15.562864100131534 16.301823800123223 16.906437552686366
Sb 11.793532629283325 13.02181053177665 18.27822179251303
Sb 9.902625128059547 13.545632216707363 16.181659085079723
Sb 15.94850895285881 17.539725864141367 14.349005052986154
Sb 11.099076750685432 15.935387234700078 15.038241584661971
Sb 13.758044501005777 19.241644946811423 15.31323427413499
Sb 12.785845023184846 17.081362072687238 17.061611879715684
