45
Energy = -175.48083653 eV
Sb 15.418929821585547 18.083991551829854 10.101764557289213
Sb 17.252984151748336 11.755574953744956 10.70539433857144
Sb 12.965938345017529 17.756956739007457 11.631462680429701
Sb 12.56141536046333 13.898348674262632 10.81331489330464
Sb 18.33628651410276 14.48365265046169 10.832877451994312
Sb 14.406210286516783 11.698310592667134 10.045212035551389
Sb 17.424122764780392 18.845696434176872 11.99548944483347
Sb 13.184705651071944 19.750116300618622 13.724663761581624
Sb 19.390328634092565 15.85765458446336 13.259621063987296
Sb 14.0540079092286 15.312362646924223 12.825829934574733
Sb 17.583340356044 10.902087435068356 13.398730266851402
Sb 13.564506517994317 9.46701880249153 11.705224767715736
Sb 15.70190161848197 20.951814111874743 12.83636746915003
Sb 17.103388900619287 17.248561470915174 14.405446573823342
Sb 10.367574223990573 17.501866251136025 15.903301429303493
Sb 10.389384735396918 12.861215484374828 12.516251587416097
Sb 13.21776893545592 17.66314638916694 15.758613222096114
Sb 15.681261049927691 15.201550893579736 10.161553029317487
Sb 15.647947972430147 8.7593587364536 13.59584803344622
Sb 20.074554068875575 13.46318718886693 14.7595130538245
Sb 15.498742013993258 12.595571003933472 14.502797744480366
Sb 12.670100585537115 11.50803514024405 13.50867140313214
Sb 11.350370038905892 14.905633567666605 14.439053612065393
Sb 17.687193158680202 13.386391776187388 16.35358940293196
Sb 17.232816725792205 21.606414329463373 15.200183852779226
Sb 15.0428718294627 10.203410020421897 16.097472501227475
Sb 12.155801540935796 10.559562160365683 16.18434441763339
Sb 11.79875507799775 19.445591395061147 17.564965389305215
Sb 12.773470353689298 13.380365198824041 16.53226847278368
Sb 20.929361367104296 14.1700234975699 17.52249219351157
Sb 18.95991315834385 19.30390953182175 15.442560408064097
Sb 15.097825451850527 20.814424445418577 16.95846060668017
Sb 18.561147340671102 15.869674571808291 17.631212949507795
Sb 16.012397337402852 18.1072682861967 17.65325990050189
Sb 15.613488677180504 13.087195701132224 19.010206518694293
Sb 17.260950666178164 15.171834554950278 20.11781499406213
Sb 13.318734123828708 16.0509070351474 19.010183177034143
Sb 19.351911200143107 11.787947436399396 18.089859913580337
Sb 12.461250992189742 18.506903308645157 20.22867766975127
Sb 16.646013852671185 21.214206705327687 19.343059199617375
Sb 11.238300757550252 14.07247342944894 18.88556723059448
Sb 18.621886163625376 19.16945306438786 18.345307950879825
Sb 15.379407699579671 18.78057824427072 20.418530455297176
Sb 17.989203949096584 12.43089711417484 20.56905155683164
Sb 13.421073316034517 13.808401785317963 20.813474080259663
