46
Energy = -180.4356215 eV
Sb 18.052555973245013 9.794387874992767 13.402648176782016
Sb 18.170579883602038 11.672378812133443 16.748371456313194
Sb 14.079356959142673 10.482801747537678 13.558318186979315
Sb 15.72266651174217 8.212997771965817 14.15738017767166
Sb 15.39447364129154 8.989067322235439 6.862769331295817
Sb 16.557761640057194 13.108409891253226 18.663632268589975
Sb 15.93858887509651 10.391847859240569 18.063018343502637
Sb 18.972748273679535 14.085156283550951 13.604010115953466
Sb 17.271153928761354 9.541066788746337 10.60250937200642
Sb 16.8346480573148 12.291620884813879 14.256960197262076
Sb 10.728842775716185 14.945955943856017 16.118251072970278
Sb 13.03899268021175 16.567006438832102 16.875059366908165
Sb 10.354793632308674 10.902388776091868 18.146543942437177
Sb 11.020602860631389 11.593130368404953 15.417827980104562
Sb 17.309511323768554 16.287478052010556 14.48541461961967
Sb 14.314140084994762 12.497977278236705 16.92838010632552
Sb 14.670026867089458 8.636217440321094 11.421928649464528
Sb 17.19876245781097 12.226942390403728 9.541366425386103
Sb 17.470513218502937 15.60350044315793 11.66552097905206
Sb 12.725643831829846 8.688334604070047 5.856777815612182
Sb 13.481375402834752 7.28122906630788 8.248969421738506
Sb 12.658610458546406 12.211921388237826 19.29875461258374
Sb 15.571644957647244 11.861698402722466 7.1333855319099735
Sb 14.68874684858217 18.515758209621026 14.03106189002299
Sb 10.280343096231322 13.732954221444347 18.759102660191598
Sb 15.323705741205375 13.645662504827614 11.220564488424799
Sb 10.742382966660388 17.31870213986987 13.485631530936393
Sb 8.679344142066117 14.295133837546972 13.124784749599941
Sb 8.213645181751188 12.190083714846173 15.018569397327228
Sb 14.503316413767337 15.202327668489623 8.888170273956101
Sb 11.445818583182891 9.305974688190586 8.390652034278194
Sb 14.436965067969643 15.67579854222081 14.402370753309754
Sb 11.068389980841003 11.899504554295905 11.844519656054862
Sb 11.355261937857632 9.480063304478929 13.445764562071414
Sb 12.171416491672947 18.930949518425123 15.38325958663852
Sb 14.101896004560745 18.430145634424694 11.197078253214261
Sb 13.109891755804687 11.172620516486953 9.848086340958597
Sb 8.475238276563465 16.682402486876402 16.811545743174975
Sb 7.114592125055038 10.46176985928231 12.959984330585979
Sb 6.723382951624834 12.91383166172546 11.456604143643307
Sb 12.99465285719688 13.055135233519012 7.6945573016256
Sb 6.789473306966611 15.94199816861517 14.59306496526597
Sb 8.6606044370441 10.943683323363452 10.581636781137533
Sb 11.261999088740907 18.55370550813445 10.898922599836913
Sb 12.640436009584848 15.962417487834966 11.009642246606209
Sb 8.277032636190512 18.412391583301904 14.493157757614279
