43
Energy = -166.2865206 eV
Sb 17.59856563712458 18.137478109293735 10.58717330687531
Sb 11.405268802386203 15.848689525548167 10.813944160796526
Sb 16.329938095537635 14.019592232689414 10.226942962321962
Sb 14.783147464750597 17.838420552172128 9.81399802717569
Sb 15.265453988768632 11.438994685780896 10.752784623601796
Sb 16.695966411203834 19.58607723553942 12.950230579590281
Sb 12.917306729706429 12.419211930424884 12.167672007058108
Sb 10.330505635703213 13.171632606991977 10.965317152325301
Sb 18.02540188498645 15.826471403471873 12.32495343627643
Sb 14.28550828613399 15.590236620862544 11.520917348861724
Sb 14.026143710376969 19.87548071344666 11.720350773582478
Sb 20.47545342484654 14.339582677585643 11.859037982832952
Sb 11.811582768976189 16.020750458167985 13.667512646634009
Sb 16.268747177358446 11.340090033222523 13.476835733098055
Sb 19.704613021668123 18.027944775867173 13.70730864066694
Sb 19.350261163168454 12.31466336584024 13.756846597323634
Sb 21.801841195760435 16.064889883776093 13.7032123516312
Sb 12.013403645917265 10.189727267881327 13.852240864739915
Sb 15.51274590187076 17.250164589034345 14.222466825317406
Sb 9.132812710052262 13.069886453310113 13.619594704921603
Sb 14.535323371589197 9.47739114641511 15.048043387827333
Sb 14.768855048946104 13.545718046024279 14.71975491901293
Sb 11.609010904748251 12.744371962597812 15.148963680992468
Sb 12.985450608163944 18.660543168513758 14.177134173822916
Sb 16.645626383377323 17.003124267874483 16.909314884854222
Sb 9.000022175579446 15.851055725885713 14.359828199750357
Sb 19.328702110194307 18.039508954910474 16.588778851584596
Sb 15.14245520113128 11.638373232392132 16.89229598320995
Sb 12.235831410307778 16.09816999450758 17.533980135268056
Sb 12.859147287184246 18.892986504057838 18.301415660406466
Sb 20.34566948828132 15.358388953223509 16.29518411462086
Sb 18.411163176839302 11.833192428220926 16.763701233315025
Sb 17.80801519002727 14.241646746417198 15.228190926348711
Sb 9.39368050458299 15.469921056583225 17.223060503764394
Sb 10.346652077408404 12.753229270627386 17.72667048892452
Sb 15.812042776906258 19.111853112925782 18.656384362939136
Sb 19.60071505392107 13.608833543749444 18.678324987981057
Sb 13.010824584397362 11.949480742211016 18.85449311205116
Sb 11.856845281060137 17.05560508688915 20.256361977755763
Sb 16.576845320769362 17.352768727373423 20.87604056619531
Sb 14.428226376008823 15.88576274531156 19.69206260350328
Sb 17.513097362968182 14.563871330802996 20.414583471343132
Sb 14.827037502433459 13.2701249847002 20.721997902019258
