43
Energy = -167.4121706 eV
Sb 12.240226250248071 15.076899563340346 8.802231009482902
Sb 14.342508924870966 13.106913685414275 8.784628043583353
Sb 17.164885329827925 11.620435353939143 10.748634048049395
Sb 14.376894659210265 17.065939360694372 8.728883772593296
Sb 12.79436301301869 11.058934043468664 10.128774579272802
Sb 10.577530941265046 13.886467596255097 10.925086225243433
Sb 12.909439038805587 19.125115634131582 10.123431767902401
Sb 16.616711165474157 16.415818624187303 10.445560689656027
Sb 9.536944418888586 16.079433233672734 12.539595413943982
Sb 15.453913367997574 13.88036219148476 11.323825790786062
Sb 12.60597652809691 12.610543388962707 12.574698152330516
Sb 12.182423814168319 17.211611152615998 12.16292802323251
Sb 19.819200839567507 17.396175290602173 15.179475487297637
Sb 15.12673500389134 9.563149680505578 10.944441310352731
Sb 11.45797242305233 10.238919452802083 13.852785348818422
Sb 14.600129808201073 19.763528040378723 12.408691222279485
Sb 15.478639563552957 17.085785106318518 13.005560030173239
Sb 13.894731994461004 8.744873008836734 13.448023246708289
Sb 10.995743951247352 15.103266391981158 14.836021284331308
Sb 20.483734705455554 13.5881982302455 15.766180470424736
Sb 11.717375380070658 11.768619470297113 16.337144190680895
Sb 18.906944689998696 11.669390739038102 13.047011276022285
Sb 12.900507678806195 17.232288511866745 15.723997187192515
Sb 12.132740191631033 19.412750514545117 13.998566921518332
Sb 18.910562063145633 19.92255085670505 16.176624669706502
Sb 14.509750552493978 12.430574578543506 16.240027872980477
Sb 17.900921810678796 13.955125386736363 14.522244241454494
Sb 15.324207243914923 9.674561234999784 15.751093061269872
Sb 20.68489437736721 15.915566583327163 17.513097730338995
Sb 16.957890508908694 17.87217259980869 15.547425092843767
Sb 9.36561621328361 15.702682721280414 17.177759892574002
Sb 13.473251438016103 10.778577030579678 18.433136951343645
Sb 18.151961699273933 9.86958078442243 15.189166290924021
Sb 10.881688851083078 18.135749413163005 17.64874708986035
Sb 18.140653394462404 12.283205384564805 16.86368637634901
Sb 15.294569505864393 14.013673158945588 19.317116587986952
Sb 17.738460703532514 18.892509348343978 18.59776939641956
Sb 17.896531009953137 16.047477361018853 18.258817499729368
Sb 11.954301794652437 14.73495955601795 18.250199357057927
Sb 14.721990715786037 16.888766335426485 18.979923342272233
Sb 12.79958768247927 12.889607636275004 20.338578842938997
Sb 12.040095269091665 16.93095964497536 20.075191394488076
Sb 16.632754932690858 16.052245567768857 20.97918226607186
