43
Energy = -166.38299582 eV
Sb 17.059716871333016 11.302722639760816 8.29156575044969
Sb 19.089809080034488 11.841471557050767 14.067552861403744
Sb 18.556648720031323 13.310677375775837 9.785475193316461
Sb 14.723591290205631 17.68487632839297 11.040367955765547
Sb 17.13337134771646 9.459929353140408 10.562393226716406
Sb 15.699117861652194 13.331729033052348 9.957829107289294
Sb 19.416589841638935 11.035883226849867 11.306143407137641
Sb 12.915220317912736 15.5045804350944 11.29332802031388
Sb 13.21118174800814 19.914370933853057 12.086244656407677
Sb 15.590749235740997 15.409648870792156 12.657759446594545
Sb 18.966768419939243 14.51970429325834 13.320624469439128
Sb 14.904163498916883 11.021057229264645 11.475649808797867
Sb 15.050446915494405 21.675494797832933 13.406686578472302
Sb 10.888550978603572 16.196740255426477 13.214774764338983
Sb 16.406376600919938 19.499811106011443 14.74410921228223
Sb 16.130421798080352 11.366805247738103 14.087895688914148
Sb 20.265057667419747 17.955402262209162 15.017364378037504
Sb 10.907574286138983 19.02489000450484 13.562383246071628
Sb 18.871471768229647 20.28102817486838 16.08107394568273
Sb 15.067189598738977 16.409945117942975 15.35968143424678
Sb 12.384860807638825 15.363717457818137 15.542405865390574
Sb 12.925063846136206 12.271075663550574 16.453458981201237
Sb 15.518403940026895 13.482774080712458 16.03600676731938
Sb 18.50133253711347 15.838148017021265 15.852481706725843
Sb 14.973593561121733 9.968968886357368 16.380384163187152
Sb 12.411846667829487 13.412096262847491 19.047610814018185
Sb 20.980387773772318 16.351628100054068 17.30655238856375
Sb 13.985371978010063 17.640081679766535 18.371199489081206
Sb 10.637790647872352 19.207148533920357 16.435651286919057
Sb 15.091622910845889 21.454678863423347 16.398103757772496
Sb 11.261436681603744 16.707321068115846 17.836133381400806
Sb 17.50304053869183 18.5804664934496 17.94251841953375
Sb 16.48211025436959 14.998284246580726 19.0442646688738
Sb 17.199632669366224 11.410935997067856 17.399199487639173
Sb 19.853794293721467 17.998939711091882 19.46212362801542
Sb 12.921555060414113 20.276536458298803 17.834273796733704
Sb 14.572044187697745 18.94162128739592 20.945448508987102
Sb 14.145708565058372 12.342465488717147 21.04126640147547
Sb 16.327409007462542 20.692498107218242 19.44926945207207
Sb 14.25600471555755 15.308001903356557 20.903835545724437
Sb 16.87201721826556 12.331850014727092 20.103036913134922
Sb 18.47141005220013 15.933330746462866 20.934603087037807
Sb 16.28027147720814 17.151389927965504 22.371995576253912
