49
Energy = -190.49712176 eV
Sb 17.23682053638821 12.220781941948292 11.398381413919715
Sb 17.305061009434368 18.676176890028767 11.275606153861663
Sb 11.642517176082384 15.422366366908157 12.536589725055803
Sb 14.428550504296057 12.411759522635908 10.784280300511895
Sb 16.722352340286026 15.044157520395379 10.846711563805806
Sb 14.663060835261676 18.34023014939633 12.420971709784446
Sb 13.090020541871292 10.400920721950856 12.39869865873165
Sb 13.685642475001446 20.882724929697464 13.246645098568276
Sb 9.39582522506499 13.600105255670504 13.052257080652232
Sb 16.6394464866044 12.451044739837576 14.250978349918464
Sb 18.249830812359882 20.981973420577035 12.771291636774393
Sb 20.645536007503356 15.207418883898855 13.335377722138706
Sb 17.96998559717741 16.40710910803202 13.089931266871403
Sb 14.84080151465777 10.19175246455519 14.666030786279853
Sb 10.017586491019195 11.557480343475245 14.996465908212974
Sb 14.448288443610275 14.491035481194263 12.767770894032406
Sb 19.138157136586077 11.646766287060645 15.596121218989396
Sb 8.544259501818141 15.975325088044805 14.540082302388505
Sb 15.971200862253554 22.593051247958204 13.442306532937337
Sb 13.379230315313224 19.53423733659225 15.932821563464014
Sb 12.766430769924757 12.31320351361695 14.50506327233459
Sb 21.187674370713165 19.532724796396366 13.926335997169993
Sb 19.224556302142 14.564988617107124 15.838565679456424
Sb 22.27654171929762 17.049090525180635 14.886354211140574
Sb 18.2581879540413 19.11305394582695 14.935566235419703
Sb 16.74341487388461 22.974419142673916 16.234985888976734
Sb 15.46633224128091 17.64239800809571 15.214643803257992
Sb 20.450800735297523 17.760466325288455 17.01784404738013
Sb 14.55191560675488 21.62279246415949 17.547952019990543
Sb 11.360795045489144 16.678818175976183 15.124356829352108
Sb 15.336141474269414 12.451354356001834 17.503374997489793
Sb 21.319282156325453 20.52301303100457 16.634873526272106
Sb 9.616204659469911 15.48322223310759 17.121038348807453
Sb 12.021793472224008 13.085034816861192 18.715962804996654
Sb 9.370736150425348 12.68236600522893 17.58242588922301
Sb 18.43704383199509 20.856524367042404 17.23962423263687
Sb 14.755119851243752 16.08680576415103 17.95932517394642
Sb 13.145761726999071 10.591812129865671 17.836549435817243
Sb 17.48367327466094 10.530445680532821 17.753805755806464
Sb 20.951386287527477 13.988473325320816 18.143791542963122
Sb 21.22196693073335 16.547284036410307 19.516889810424747
Sb 13.168448068676676 18.23716097859974 18.813963441608667
Sb 12.96175531325774 11.162379898215521 20.68631610876287
Sb 18.162932906477625 14.133916189376292 18.94933575418195
Sb 15.470505887819735 19.83337650729879 19.627658141785346
Sb 17.109461980787547 17.782169096132005 18.342996654096897
Sb 17.873959392275328 11.676184236722563 20.41788754772632
Sb 18.495375618639326 16.50370466190923 20.598159928605384
Sb 15.226885427111645 12.985657314374329 20.404290875806154
