44
Energy = -171.96420507 eV
Sb 18.16332332486077 11.857264116154475 14.818061640611134
Sb 15.676664848157698 9.608738734935322 17.026978133921975
Sb 14.446386648464854 15.946579763694164 15.384746005734756
Sb 17.05048165989359 12.117521086608434 17.524326783734818
Sb 12.894335426336141 18.417528645685007 15.239911041870785
Sb 12.80778546148168 11.191657293106747 18.899306785896904
Sb 11.692089818515004 14.660961261556292 17.05724477579319
Sb 10.69887853030587 13.163184053763985 19.31523227921969
Sb 18.130777469208038 11.283718620826924 11.311675358344456
Sb 16.26937035664613 12.902635848300767 12.859290603625341
Sb 15.940012573758711 17.378513043260988 13.344318590605331
Sb 13.461078008519905 18.46778896105799 12.358635262823237
Sb 16.737941079956574 9.383090555403221 14.309761197282006
Sb 18.137369998917972 12.809588820391335 8.823546467864434
Sb 17.455844003529343 15.371499425505947 11.883010149595945
Sb 14.098722163831036 10.353453261725955 13.514623763045837
Sb 14.332378671125811 12.152157742979469 16.627104824842338
Sb 13.114885230187515 14.321533865642765 13.412927190876493
Sb 11.039592696264647 9.902420844118007 16.993326624362382
Sb 11.320347984456275 12.567726140038639 15.076868911466786
Sb 9.199513466624461 15.855778143757854 16.23210180961338
Sb 10.29898767790543 17.68125505474166 14.245432329521751
Sb 16.63324566457463 9.225682091992805 9.911710819417712
Sb 13.550698511637092 7.585150149671624 12.875226376667035
Sb 13.108610478574468 15.962282198319347 8.849306621496996
Sb 16.24556098351605 14.916807034078579 9.310652924050098
Sb 8.881467587155175 11.49977652099919 17.799442942939688
Sb 8.462116161786648 13.220840235348149 15.1939432079658
Sb 11.543998279919544 16.290274722112976 12.053446069042918
Sb 13.874823252194545 13.418309029614932 10.17297854946189
Sb 16.416722635656743 10.891391006236478 7.501802434634337
Sb 9.29167915934016 9.432990961609825 14.228036553547968
Sb 10.705558731491065 10.651429596376678 11.983793534373538
Sb 13.891201287508078 9.523651905835429 10.722584825586205
Sb 10.717052438154456 7.803177518550498 12.267899408855191
Sb 13.270915465431631 14.3092723756669 6.419439161210323
Sb 10.191149577056306 15.93471729795837 8.599275819073863
Sb 13.662116014898807 11.784073291703058 7.783829392433279
Sb 6.7996476064741325 10.019210950186526 12.701197718332208
Sb 6.934927247613844 12.895222888482161 12.62547591463853
Sb 10.37754855036625 13.285434825909473 9.566039794632196
Sb 8.407998865122865 9.978973813231443 10.28153728575906
Sb 10.435131017775209 13.76522121818003 6.679444066403492
Sb 7.570115175982442 12.684129742510269 9.777334484795555
