44
Energy = -171.16046264 eV
Sb 10.569351433284274 5.229487576129817 13.319930942623511
Sb 9.505614571826994 7.577773799998135 14.708458111085484
Sb 10.525075534474963 9.272666233385165 12.508251010160127
Sb 12.034035954663196 7.024562916259651 11.518808775180425
Sb 7.567053178441715 11.372981443281631 14.268462130215527
Sb 13.224902755039944 6.079582280103773 14.016093601660943
Sb 8.715311418264998 10.343540095549479 16.684020661276335
Sb 12.109976154299495 7.962445504782916 15.914639809198045
Sb 9.861532673180523 11.5722747500295 8.981681220322852
Sb 13.239153226859711 10.204710484735982 10.46196597989626
Sb 7.116294500008076 12.733996391398236 16.736632856306286
Sb 17.86403138742594 11.800245657773138 14.991412473319183
Sb 16.01009240334475 9.836192742863261 11.14104373248557
Sb 14.915313121739418 12.199982593572555 16.732901915326174
Sb 11.035799105240796 12.386366870514214 16.84500267572999
Sb 13.021424349037188 9.805317106574556 13.835967179464923
Sb 9.771276504859815 12.88290126488872 13.130255360934905
Sb 10.09009525383007 13.916950208568375 7.263513275513211
Sb 8.12229588340482 13.140363780603467 10.73578816247954
Sb 13.947155478088696 10.796394354885354 7.788826837709927
Sb 9.32078925840161 14.71042348959633 16.890027674389447
Sb 18.824127131297015 12.871488168070357 12.480669285322156
Sb 12.927566742542435 12.66155496436833 14.595999107219907
Sb 15.986928590550566 12.318202324849144 12.620974688598055
Sb 9.350378238191931 15.560672930623735 14.1563506020386
Sb 13.135393724346892 13.30899087101617 18.75835342300237
Sb 11.92749053738409 13.135185875818504 10.300130341730219
Sb 17.050627626188636 14.13482576280435 16.40774652235105
Sb 13.115933051795878 13.923286377661311 7.797530840959153
Sb 9.811121248843385 15.293732040182014 9.77235861302419
Sb 15.8060194800988 15.545472299314417 14.125591367405093
Sb 12.541752578019175 15.796683099104229 17.585769717699026
Sb 13.579433095215498 15.815014633362042 11.703217172162772
Sb 15.476110307153736 13.680872877248877 9.953401614297263
Sb 14.986074872140424 17.108633149354155 17.04115662602753
Sb 16.624241550355656 11.300460601339953 8.703965162697541
Sb 12.278168499208244 16.015943389085454 14.507820915335836
Sb 18.364302108484264 15.689538962022223 12.70810855671145
Sb 12.961396175414565 16.69382558860012 8.994052590221665
Sb 16.021116931669063 18.454795344561774 14.036721918956552
Sb 15.683589254480408 17.70990524842013 9.148969506830461
Sb 13.422896417366067 18.725492568083975 15.31499613359601
Sb 14.406593175786298 18.551804118013436 11.608092125268664
Sb 17.570769975317834 15.579628180042095 9.897708559906109
