48
Energy = -186.04843402 eV
Sb 10.876476444265624 16.363664103644048 9.198154021540127
Sb 13.465997042677744 16.25549766307048 10.621161606124826
Sb 10.177965989896878 19.11914282174987 9.878828979972367
Sb 13.841872873957461 14.10959870062333 12.701550356683121
Sb 11.943588026796053 12.080903816100054 11.829664786893687
Sb 15.96556572388622 12.637072258261734 11.27677318590292
Sb 16.421330591778748 16.733013611090154 12.122956183821298
Sb 9.775112770413593 16.005422652198213 11.79423359484396
Sb 7.9006201904648625 18.35910239703087 11.482063399090043
Sb 18.07994738529232 14.624424083681786 11.039297557006124
Sb 18.46087212519525 18.803227972581112 12.010226049641007
Sb 9.321128750862481 13.19210777184187 12.170224391030494
Sb 12.193413831559319 17.067848632494865 13.135600516396979
Sb 16.745246671157865 10.565921416365502 13.154425666848441
Sb 20.35702181481324 14.981016254993543 12.823216184565835
Sb 12.124616227478926 10.137539813561908 14.0092043838114
Sb 14.522002714983817 11.521829264402067 14.736538349780853
Sb 19.353747695873754 17.32355505878257 14.293957491007736
Sb 11.577283875993285 19.766027134521746 12.36758119766946
Sb 16.55183982973606 20.536328838913246 13.300892621823028
Sb 8.771541001920104 13.694314751438405 14.953187732126645
Sb 18.44013046915249 9.262380288468089 16.090420284152696
Sb 16.750091769488836 16.34546756413417 15.023364784787947
Sb 20.686658416803265 12.87777249925042 14.78803522644265
Sb 8.96253563085926 19.788749714742643 13.594318987616388
Sb 20.301505479851425 9.199839018158467 18.287147884948553
Sb 20.935194666058454 18.607567112433927 16.272434555555513
Sb 8.939789566893408 16.585158727469047 15.578832765070686
Sb 17.46393890727144 9.014984964564873 18.799869692601426
Sb 21.288748633208186 15.271255564934911 16.50283533139593
Sb 15.07368617402961 18.73847160973782 15.028553807197897
Sb 16.714283212863993 20.81065450235116 16.170637242324425
Sb 11.31130544334209 13.668077965101226 16.219810766505333
Sb 11.420968752447934 10.856926695097105 16.781184515577365
Sb 18.850877654261147 19.731283467740052 17.765413830567972
Sb 17.955930403048676 12.099193625336367 15.390150319304052
Sb 9.728806615675536 15.24872594100595 18.11410031161244
Sb 19.63292729330996 12.065074175010775 18.21883401579153
Sb 11.311698210642046 17.383048845943087 17.058063755881285
Sb 13.7735654891902 15.808909145890429 16.745757889658453
Sb 14.268481865181611 10.507682804826416 17.426506095464276
Sb 20.964351734273567 14.4089402841124 19.251820046149426
Sb 14.906011037776361 17.340366957027136 18.95032115746962
Sb 17.400987597381818 11.694589353068112 20.014294163743994
Sb 17.800724649622335 17.357177728368168 19.19649657424952
Sb 18.564461585272852 15.065358173274443 17.67333519767335
Sb 15.691186619650452 12.99217467066213 18.05729279661266
Sb 13.754060503214053 14.712709543717452 19.420529704839
