45
Energy = -174.69225574 eV
Sb 13.061695240380887 10.349592554923479 10.743577317126894
Sb 16.692435996802903 12.29955121947733 10.595875429272061
Sb 14.705791082248938 16.717346323226693 10.747470367345302
Sb 16.313175701633273 19.071059524541003 11.281877008768934
Sb 17.173265986367234 15.14954665804034 10.65028456501762
Sb 19.169902674297084 18.605335698447153 11.758623973389163
Sb 19.43615913697589 15.797155320361437 12.344081593910207
Sb 10.312553435550747 11.407535159583873 10.850168711869301
Sb 12.437007012674552 16.86662083705717 12.68024858462833
Sb 12.526431213545107 9.214822999181298 13.349505931391663
Sb 14.08870573551783 12.936676165831413 11.674748333459089
Sb 18.30568384076443 11.998495527840827 13.138777827583576
Sb 10.902451767142756 13.440115234959634 12.781166994264664
Sb 16.057532220969318 18.69322621734967 14.125510188821004
Sb 10.121320987910169 10.846583695011923 13.682451959248166
Sb 11.842159912561158 19.420079307442066 13.978374076794777
Sb 14.289636384524757 20.97104103706273 14.231493066901264
Sb 13.304119898434195 14.936654614760064 14.664936440492697
Sb 14.137114917065347 11.375901672385881 14.327133420834699
Sb 18.503004276079643 20.212212230472485 14.140775722431938
Sb 18.531402784706902 15.823606126850212 15.102289999476946
Sb 16.47458692101307 14.123420742111819 13.876932559887033
Sb 20.18239538586517 13.476975162740489 15.308993087477118
Sb 16.699561107711897 9.972673110809772 14.47619034848208
Sb 19.205286402609094 20.24663730002953 17.01707990738752
Sb 14.840762896535686 16.576157173412643 16.601068529472197
Sb 11.072031347333683 14.152527348664897 16.292254004777508
Sb 12.388215071170604 18.257630150624532 16.567863081392524
Sb 15.78274696994521 13.609166642499563 16.871402779663406
Sb 13.383495346460862 11.998395588143135 17.21091355997977
Sb 20.183461878537113 17.981723053648995 18.596835450266585
Sb 14.721227716951699 21.70839718772046 17.026693168127878
Sb 17.157660773995676 11.079005665612746 17.125198231445417
Sb 19.894770704531748 12.100911221464521 17.72500111339793
Sb 16.480332465126473 19.470136996972162 17.46725402933715
Sb 17.975202675123047 16.11888663347024 18.518253657571158
Sb 12.531471469802353 20.42819511265047 18.446515941619044
Sb 10.851491385409336 16.36280954594858 18.12696668269986
Sb 18.94186356740387 13.752846957026982 19.889868222881216
Sb 15.27290600402295 10.718000535292605 19.305922925594036
Sb 13.54410465971756 15.996253449332194 19.182053437633392
Sb 16.369334218834524 19.858192861966824 20.275347612983623
Sb 18.339101344220307 17.807213763440537 20.83985430035069
Sb 16.03807381261202 13.39014206842236 19.92726870629049
Sb 13.720632747096877 18.642810681371767 20.43716422643871
