55
Energy = -215.28058564 eV
Sb 11.890655847083282 12.59804581779642 10.296456323746854
Sb 18.638780324696242 19.013712488508514 11.686403550358033
Sb 12.746629692257443 15.267028808929693 10.790679580786858
Sb 14.079589126315895 11.185723410045082 11.605091668118497
Sb 15.765250036983785 13.549616747420174 11.671051234200439
Sb 9.88144048123108 12.25952783653875 12.310235058589479
Sb 19.242799115366587 15.073889716079563 11.78444634678905
Sb 15.168700439562352 20.656956591292882 13.60583455315135
Sb 19.91454991162057 21.571969118576543 11.398835591206227
Sb 13.079950672940756 10.896470215051952 14.294727717650861
Sb 19.020405279239114 23.142017917243688 13.617525543056148
Sb 21.37055369711692 19.233137827428063 12.510790198064663
Sb 11.284037824629783 13.081173656262063 14.641906361037808
Sb 16.15922128254646 23.33047066790625 13.171359309626906
Sb 12.582872193561819 15.43979199412086 13.67056603953695
Sb 20.807086691163136 16.154676406353243 13.883887807690819
Sb 10.148640309863932 16.507195572840303 10.57415939317876
Sb 18.106731339097212 12.91297907402007 13.242292632975557
Sb 15.904187836193932 14.464840770983013 14.40864815556032
Sb 8.44380400980683 14.728127724782267 12.03243896785802
Sb 21.56445088658187 20.121082198893777 15.244100265201933
Sb 18.787827461254164 16.57318410508861 15.810313401978913
Sb 15.426520692687486 11.867280608992305 15.61326737829949
Sb 15.6238495718548 22.301113361506026 15.89277456190089
Sb 9.974851561855793 16.698889348449516 13.48995408518198
Sb 14.398526254350363 17.817967914090488 16.311157990855197
Sb 18.949783601477083 21.187575229483826 15.714605846459122
Sb 17.534914545206124 19.124197630577022 14.306340756032107
Sb 21.736477403931055 13.91990977599588 15.899656997608693
Sb 16.41266599758724 13.304087506085544 19.34880267418106
Sb 12.970115444340193 22.25784315754106 17.185859809734175
Sb 11.860435406736368 16.224318193122127 16.978153756831876
Sb 15.098977130861213 16.352617135119868 18.806594793151465
Sb 12.165923406259802 19.732348929738027 16.1005035659441
Sb 10.838855160946197 18.59857508351368 18.381957106824576
Sb 22.796703321267778 11.831893121938107 17.9085585424593
Sb 20.11064277947456 10.896831564711105 17.782001749952006
Sb 16.219545169186375 19.68713938024063 17.84646896146332
Sb 19.18992182274785 13.698198648411134 17.306214289541554
Sb 14.06931290509474 12.026283231055016 18.154761138261357
Sb 20.720912683364006 18.163093793284087 17.258876967947327
Sb 22.614510704556192 15.992243290074883 17.69040107056262
Sb 17.623018661924547 17.962892613053345 19.647602244412163
Sb 14.510326912358474 21.331641044893246 19.45656680895504
Sb 12.738660040661038 14.467367104724104 19.031559646588523
Sb 20.370544619786894 10.86207446631817 20.629473002367753
Sb 17.598556938568034 11.40702614727187 21.273670347778886
Sb 12.462522322678646 19.67377096420526 20.547605834459272
Sb 13.927748484364287 17.304082741265667 21.317994454108437
Sb 22.219612902195504 13.084837592258957 20.46279710668984
Sb 20.467833751167625 15.131918508005365 19.494762307077522
Sb 15.122061198986586 14.129897850933455 21.832407758969637
Sb 17.624067027996297 15.546221169473192 21.933487203795526
Sb 16.493681328982547 18.265368586287675 22.305778368841334
Sb 17.257460471292017 13.106580325077593 23.55533785625958
