55
Energy = -214.24666764 eV
Sb 16.543042734700748 15.404876139546037 10.395218613342
Sb 18.457559119013034 17.153038016472287 8.98474281331594
Sb 11.215995366751168 14.99972841604722 9.984351233847635
Sb 13.75733082438325 13.79324339040199 10.821624733113588
Sb 17.76725415336227 12.802672517120858 10.294305878568345
Sb 12.780204959390966 17.273828745493034 11.039244046111694
Sb 16.92686424541366 19.333013292162114 10.103696143029667
Sb 20.832245984344393 16.876752426756063 10.548573466757048
Sb 18.057339596834673 15.439573917676343 12.964097337848973
Sb 20.21440155117022 14.041035009348127 11.61150551802076
Sb 13.769694693178876 11.111877588527467 11.88585371599658
Sb 11.347168605186436 19.164346393821113 12.736040084117684
Sb 10.362544748864927 15.036290080745308 12.743838136256954
Sb 13.230727708160234 15.412821982253398 13.23637658182213
Sb 18.136826335039675 20.102483322480523 12.558828970057407
Sb 16.569609457681004 11.522447130617744 12.61592258273551
Sb 20.586721583200433 18.605201590654495 12.737983380100442
Sb 14.003935914148608 19.947331127253673 13.744278276062138
Sb 9.661517078675372 17.758976379918796 14.66158817694309
Sb 10.173392398180253 12.351147264873978 13.761768985654212
Sb 13.61414564701193 13.530073743632242 17.408851178314166
Sb 12.954349462539014 12.199702572985982 14.515097898545072
Sb 21.653457395044473 13.204697599895297 14.08236479199394
Sb 16.16199563286423 13.794908550239837 14.386796248633916
Sb 19.3829592523579 17.057487109748394 15.051060368351497
Sb 15.987735547284888 18.11076601272841 12.604023560093642
Sb 16.456485770010207 10.069490554252546 16.134047721550193
Sb 18.093032982804022 12.583057406864938 16.190815814224237
Sb 11.183518591924882 15.894733560405934 16.326994524002885
Sb 20.519678980814856 14.72469044937829 16.217423717639704
Sb 19.846631254627297 10.991485554539139 14.548304168665858
Sb 14.110865229204189 18.261549140876927 16.108468648796322
Sb 17.803611264419494 19.694305511840344 17.4850206465327
Sb 12.227679475865035 10.061301228201707 16.335103652969828
Sb 9.32822035112802 13.640352772295715 16.19572035177204
Sb 18.323801836301218 9.135899338677131 18.154055108324272
Sb 14.45922780156367 10.795089918976617 18.070051824845688
Sb 16.674234792108066 13.34871779487408 19.05621870659199
Sb 9.074235396828618 19.516116996100806 16.951357635560434
Sb 11.09916542609985 12.17314766243652 17.98165754193193
Sb 15.095879294921453 20.763857247764214 17.267824394589876
Sb 16.82185036596203 17.105744730317067 16.672940189453154
Sb 19.149081896837785 14.936295465308364 19.28732744052786
Sb 20.751839635378225 10.477388482677007 17.285514067219843
Sb 11.739447973837938 20.500487159831984 17.569435603388957
Sb 9.620045819800746 17.12082076050144 18.498893116613424
Sb 18.18108534581032 18.66299935817736 20.169531022290304
Sb 18.024662269957823 11.086731417865192 20.31180626349162
Sb 17.224189063428856 14.790629185761375 21.505573440794386
Sb 14.59942613307442 21.185252348678336 20.09919489535041
Sb 20.53832009923059 12.359181353625447 19.568403819974336
Sb 15.896955316221025 16.894784938912537 19.989916621343408
Sb 12.261107844761838 18.166409001979225 19.197466887129984
Sb 11.748340576515513 20.684990658506244 20.452573428109975
Sb 15.864014972169626 19.211825435362357 21.755981783069934
