54
Energy = -210.10279112 eV
Sb 17.132977063893414 15.81297781722471 8.338407551741605
Sb 14.548862540434275 15.098789552326442 9.454553497642054
Sb 12.753990850535946 17.557477539944312 11.046042216588221
Sb 17.748640122616436 13.010412342175396 8.77150499173602
Sb 13.39491830038114 15.859973468494129 13.364477112847348
Sb 15.34777170678873 18.689370803420385 10.49680905080264
Sb 17.381100232416962 16.6640276933206 11.118597269501063
Sb 15.195768378811122 12.29305543460726 9.9758754636325
Sb 20.439937462762327 10.896408288134896 11.286278458661847
Sb 15.880605179862131 20.362240642216516 12.814284812701565
Sb 19.438702696712788 18.65797498199216 12.051723388544618
Sb 15.552408453315806 14.251317412537551 12.101291993736105
Sb 11.405650704491807 13.731941252492444 13.468775509104315
Sb 12.136171864356504 10.125274364508389 15.886965731187482
Sb 11.44788266078586 19.316128460805842 13.190784198379326
Sb 13.943745604580526 21.941023880930718 15.601183885489798
Sb 17.478586440563426 18.326717221106477 14.137621923339545
Sb 22.17464007775913 14.222366863245107 13.876381181982325
Sb 21.636099644509784 16.936749277748888 12.7454566428804
Sb 13.978757786867343 19.190729329747576 14.626170402033825
Sb 11.233972351516833 21.945209437202173 14.529310109744673
Sb 13.64377160491747 12.230941371502723 14.56646675724847
Sb 18.193970000466276 11.856197530329199 12.822627030678438
Sb 20.829857489938668 11.66341549655471 14.03953167867016
Sb 19.51363578755159 13.608403788710378 10.992943895272354
Sb 19.068266780419027 15.988024729464888 15.890591435606604
Sb 10.759463620830166 13.666789709552306 16.320154977808286
Sb 21.397946443163487 17.77771231560811 15.469918468071421
Sb 19.67772510310618 12.0887328428669 17.31493754794983
Sb 11.985738389816332 10.600558147535816 18.72454646569617
Sb 15.62638228858919 18.181553433378586 17.512042864395244
Sb 21.73112549857621 15.079825714637325 16.577271626305425
Sb 14.539110819388974 8.503321430706869 16.116698573423793
Sb 13.551368601591674 14.319584272625539 16.647872633079366
Sb 11.370054042662542 17.551099075527613 15.747531895821554
Sb 18.37013943900703 17.53708105559068 18.26679257857484
Sb 17.231604603500667 13.296246010626705 16.281362888418315
Sb 17.80581615044336 19.878638547880374 16.574570390568816
Sb 12.669731851747388 21.529336319376995 18.15499176328518
Sb 12.64275596876041 16.758284607023047 18.454244258976736
Sb 9.339822602822268 16.09030441092576 17.09149874993665
Sb 10.479731044418338 20.175921895945567 16.780424132032337
Sb 15.821439396082093 10.590775837206719 17.641969658710128
Sb 14.06870685983659 8.625878449982931 18.97863244055176
Sb 16.81215762245553 14.189767103586515 18.92202068910505
Sb 18.7300341455218 12.295345443296837 20.05790794047814
Sb 18.415688525511086 9.822156792331242 18.576117134776485
Sb 14.876877230327981 20.21410908666203 19.51237952152196
Sb 13.9921562462609 12.814680403251515 19.128649302740424
Sb 10.415325577582195 15.646933286686565 19.999726478969766
Sb 14.690462767549507 16.44168031261182 20.65542055354178
Sb 10.959646960606516 18.509963610749544 20.010118547758484
Sb 12.843907665633894 14.417062098553274 21.346195792214083
Sb 13.36796459215565 18.833084649732523 21.614921780736676
