55
Energy = -214.41451545 eV
Sb 15.06246320372759 14.23643159698028 8.980414788194137
Sb 17.966122499124786 17.24932790145404 11.149328469749141
Sb 19.72556627311499 11.311945109122556 10.040907111658157
Sb 13.833822465892279 18.045188433440792 9.835325277640324
Sb 16.24936964449068 16.879649988436967 8.836148391124004
Sb 11.266071394194737 12.947772531727336 11.67600189112113
Sb 19.06745455983929 14.55338454580911 11.460739228425496
Sb 17.03388988433229 10.557031797172812 9.92533731349345
Sb 13.140362919304044 15.356406225009525 10.90089344996867
Sb 18.39859380088605 18.9397002907769 14.370878700577276
Sb 9.160065362140731 14.430749283862236 12.762352938387394
Sb 15.035756974879153 19.941779051930126 12.017199757220252
Sb 16.480901616729803 9.036848710419662 12.406030803779311
Sb 12.15172299366453 19.813111909285443 12.034217014591608
Sb 16.474735238627797 13.192684817847963 11.235999756033227
Sb 19.480119063123905 11.023082499094729 12.807505571915268
Sb 10.815834991225904 20.82711222214223 14.407435568937638
Sb 10.69586652708477 17.138847680007522 12.30167941963946
Sb 8.747892700221275 18.991169296904783 13.507128866799048
Sb 18.697556754592142 14.361883919289442 14.394271334146467
Sb 19.052473914800977 8.281476072863278 13.524851561672381
Sb 20.16216944457163 16.778517245549647 15.209487699691278
Sb 14.655333289464906 14.631742009760421 13.337833509061843
Sb 13.232065776390106 12.051070478999627 13.630407612263436
Sb 16.081219792838265 17.574988234433366 13.301075836613716
Sb 16.782430879198476 11.436953477378067 14.079852960008363
Sb 14.859256697359239 21.10983193241138 15.005664253810123
Sb 10.471120678316852 14.3623132942854 15.297647776932555
Sb 16.96789985964751 19.975657990510495 16.69718482027476
Sb 12.367514222523411 16.42928075923355 14.549005245291701
Sb 12.665617757313667 12.373896068717642 16.529393988330856
Sb 8.510890824293977 18.357479074401972 16.31930732591924
Sb 18.07646339074398 9.589963055124832 15.945000736806884
Sb 18.745836401210873 13.075336583012108 17.7657024309932
Sb 14.49460702218658 18.56041122039266 16.084472472599256
Sb 21.130615355995776 12.722046078331564 14.424114397854897
Sb 11.334181975442124 18.763910154857765 16.440713552567463
Sb 16.907147036672235 16.93395185571348 18.398936791655846
Sb 14.354633640678943 14.701297489597403 16.853828703919
Sb 15.51292474407846 12.03105086134704 17.35450070981938
Sb 8.591223585863235 15.607455168985823 17.099735776926707
Sb 20.48183356222497 11.054079282827109 16.690542039412506
Sb 13.861632911433757 18.04292612715847 19.27726414353241
Sb 19.780312853034243 17.16362434959464 18.057863326481282
Sb 17.580979375978245 18.486736656643696 20.861428181097285
Sb 20.7637865209037 14.65732797198362 19.127652881105544
Sb 14.910115185229186 18.941328132433007 21.84815768934479
Sb 11.084384397774674 18.916690719124 19.367285824559648
Sb 18.444506482508697 11.575867100496712 20.21649144130913
Sb 13.13398179669766 15.241779939830334 19.469613580626614
Sb 10.300101881661023 16.137546167940286 19.42867137158494
Sb 16.42833643045154 14.905564493915547 20.519883993832128
Sb 15.570331059150154 12.057352223917917 20.234781208511826
Sb 16.417027214122392 16.750184682568488 22.851492542458665
Sb 19.095732246665246 14.179112309566321 21.44321503435181
