5
Energy = -16.04009925 eV
Sb 13.810850514590454 12.005057651192017 14.039777570507688
Sb 13.759822621271718 14.42906596327445 13.396659371211483
Sb 11.296138284335477 9.791109023039684 9.462575696331122
Sb 9.31521093218958 11.204470845931128 10.684949425873581
Sb 8.496090313412111 9.1100062277152 9.141489134391792
