51
Energy = -198.6411825 eV
Sb 6.958451400002027 10.742777606295224 13.691513461509436
Sb 6.264603141391916 9.297392552216005 16.070055298890516
Sb 8.69238280596217 13.008844010551131 14.286027964310831
Sb 5.9253751029217545 13.939076201034503 13.980384850593081
Sb 6.1664982023690404 16.598128820164476 12.849818082100239
Sb 9.008886171206196 16.380731730347005 13.28419113229029
Sb 8.95535579307407 12.834618949877191 17.157231361104174
Sb 8.489051716955121 8.272729150926162 14.291678857574068
Sb 8.729196763085113 8.42248390911369 17.220350018699822
Sb 9.767771659033867 10.913533203911784 11.273759972169454
Sb 10.719068901030465 8.125929570685596 10.998012956268047
Sb 10.874607441075563 10.181656433734387 14.373551171107673
Sb 11.181427268147225 16.881490682058633 16.114284928356916
Sb 6.2939932376824235 14.293342260981154 11.116862552643234
Sb 8.917637644445263 10.576065604650308 8.546789525952176
Sb 9.235293078420995 14.465616157271668 11.058480407541964
Sb 9.696728944967836 16.756084935373064 9.227745246182964
Sb 11.302970390015759 14.468743909798617 17.74188486200149
Sb 11.947073265966262 7.603181485115722 13.59344896642305
Sb 13.26672558169299 9.305680454983579 10.118782848016068
Sb 13.335906597370025 13.357053022402205 16.022189672505068
Sb 9.680698631790372 18.560405148902714 11.50420319450343
Sb 10.707938637673573 10.522533520882007 17.266831991024414
Sb 12.458466894908817 11.928962543827708 11.06416776871162
Sb 13.0179587834638 16.290134346907195 13.932645077040071
Sb 14.299340692273162 10.61256637307821 14.238133371956952
Sb 11.175648583690984 10.932484047996413 6.826549179804168
Sb 12.582882596964959 18.34230683452357 11.931825397574043
Sb 9.603474546070037 13.22583291900585 7.598710936435076
Sb 16.407991729637562 10.915680255578987 10.66245068396479
Sb 15.305808092935937 15.206219582206792 17.076078057275865
Sb 12.292234300795107 15.986862502528613 10.275660980533027
Sb 14.299704653965701 9.042452076451475 16.637501655278985
Sb 14.599483884658758 8.29705604219484 12.499204300307065
Sb 13.9534071115198 17.661828623313244 16.301569726049078
Sb 12.382916778556005 13.029219551573041 8.410723491159283
Sb 15.401041672570548 14.455555279362889 11.009058876946362
Sb 18.32292373067853 10.270983264532072 12.723395645482192
Sb 17.744681053056926 8.334798449697775 10.635062033181857
Sb 18.61458438172522 13.286775403837073 14.680389573619504
Sb 15.925231130347033 17.29524562690248 11.011408721752172
Sb 19.23673332808592 16.07449653402329 15.041248597319315
Sb 14.690202119660604 11.601835573164006 17.914671620572967
Sb 14.747990930988678 16.061340582770836 8.683108336428969
Sb 16.64861385809443 10.604305869238791 16.013563965689638
Sb 20.470458440402687 11.424488359472267 11.062149538747889
Sb 18.567551741787835 12.028274918519958 8.983270627259095
Sb 16.53462231640961 15.278071287922486 14.435634098618227
Sb 18.048059033077056 15.392812223155616 10.30988550545696
Sb 19.91843454512849 9.454105729349815 9.007724943388526
Sb 19.847222007688273 14.783266656712222 12.52296621125738
