54
Energy = -210.54805835 eV
Sb 16.069228047248302 14.638561288474843 10.799427416302677
Sb 14.642732948281498 19.34281840988593 10.6650564841445
Sb 17.077008776111832 20.338951354119324 11.94475461645652
Sb 12.301147520875027 20.123766572397066 12.317081753334492
Sb 16.937802261939435 13.560127900008224 13.338913489345574
Sb 19.823584022019503 14.381899224469377 13.218733336095429
Sb 19.197848021725203 10.239995205970141 14.764587685832756
Sb 13.355796656499772 14.845916214857766 11.849749133913297
Sb 16.761374689939977 10.582865378275951 13.47465203890643
Sb 17.90203205858856 18.23588311895466 13.853988903900012
Sb 15.167875187638412 17.009169754426726 12.27077255971357
Sb 13.422000076865157 22.368961595047768 13.778941442025399
Sb 15.567433967644703 20.631978446612425 14.351245919676108
Sb 19.832602867044976 17.04310465250583 12.049006121414822
Sb 12.317100132621857 17.84579027097631 14.13006277125423
Sb 23.997495715517957 16.153238444491674 13.993451628871103
Sb 13.543511829579593 18.842789517180105 16.54965194291316
Sb 18.694826161425667 12.532229981345655 16.266764585499246
Sb 15.01642184937833 10.410350752493676 15.834119864667667
Sb 14.364190398180357 14.60764094274397 14.59712254024336
Sb 22.639072472893684 18.847104012799754 17.260202612207905
Sb 17.3350268335651 22.31394201410698 15.80427965501855
Sb 13.218403908565504 11.958992103187654 14.223536168887644
Sb 21.574794506031022 17.600024346532084 14.292867174102252
Sb 12.828501062595823 21.628010027017872 16.540936696559452
Sb 19.899125542791367 15.632630086724015 15.802176797800131
Sb 9.747391893416705 17.669876010318088 15.566732600184535
Sb 24.380277845987106 16.5861393357985 16.646939248992915
Sb 11.23344787877011 15.307496053248636 16.437815479079116
Sb 15.833179797579456 12.733456739838005 17.307831505035157
Sb 10.96073351148672 18.793209247705615 17.964827203165523
Sb 22.019741806595913 14.504799933245968 17.531141641827872
Sb 19.477925985465866 20.369436102264125 15.21794190442707
Sb 11.043750159525528 12.414721020622924 16.084140338980554
Sb 20.495049776579194 12.208975053562163 18.494940972535275
Sb 15.412685682973882 22.03176330528171 18.012810176400766
Sb 16.27434923118266 19.325796390339917 18.655201466177846
Sb 16.334170262946653 12.192397031793531 20.14322901663534
Sb 19.661530547680407 18.644222234651263 17.630607108687272
Sb 11.661588212354973 16.741034174707075 19.94170453446328
Sb 22.859585095830916 18.406640957814833 20.11540697700308
Sb 13.854147481409273 15.417848419521329 18.50265230674202
Sb 20.608181287317066 20.28290449395926 19.92294729757463
Sb 18.479714914412583 14.017335131851095 19.517830242766422
Sb 9.967363282507602 14.620983639840082 18.91487623124304
Sb 20.952322762825787 16.32774249731961 19.556630658530107
Sb 12.322962219637297 12.868516180244995 18.639523084314984
Sb 16.731306478891273 20.831353619164712 21.109983587938164
Sb 14.501395482780527 18.92614943359948 20.955012270164335
Sb 14.49579442461985 14.300607132222593 21.09800716130426
Sb 18.039627243818163 17.03841081090943 20.88742035961825
Sb 19.838239086986217 14.972078383127457 21.88423201756478
Sb 19.009050277627797 19.405054886942576 22.183738925856506
Sb 15.630979942307443 16.657740253583786 22.417222432787472
