53
Energy = -205.96114899 eV
Sb 15.9620385275284 11.00562355205143 11.497309229764644
Sb 11.37525539141385 9.422163278605119 10.525008127774221
Sb 16.00006688978824 10.536858170398542 17.404512187511095
Sb 9.952939443762826 11.952690946236219 6.868796239819075
Sb 12.29691971826562 14.796467562485034 7.113597412790796
Sb 13.771327947122925 14.634180303322509 16.184716952349646
Sb 13.115516552343033 15.665833417819885 18.784898766024128
Sb 14.298795925902107 17.622296174819503 10.489909264986904
Sb 17.413373351725525 8.022350406642516 16.721754428447305
Sb 15.514723500407392 14.132372180151872 18.429011517036862
Sb 10.569616063892328 16.987678926329263 15.434009880403222
Sb 6.426260970286362 14.950662198394472 11.89879937307802
Sb 8.176945111973543 17.151303107688395 11.51533817383951
Sb 10.053223330534097 7.24861065017796 11.9294988106545
Sb 10.97556866177141 16.057720669361892 11.484930246376463
Sb 11.54309388414238 6.462919504808108 14.287704909030575
Sb 12.136843377078426 11.374449421180655 12.48477433532258
Sb 9.465667159813147 13.195761746078185 16.956188060932664
Sb 10.022598312278348 7.607194181947587 7.423275751530865
Sb 10.407404692644326 14.245770506652201 14.44120805262994
Sb 17.80457029530041 11.49634067319131 15.361247014439146
Sb 12.522535390969036 12.126658812434798 8.27837955357225
Sb 16.567525695620315 12.89483233225023 7.57531573285443
Sb 8.996861073112287 16.048512383574288 17.674780848945545
Sb 11.915779389817544 17.043975675203885 8.93151549772915
Sb 11.349757367004617 10.864883759623861 17.077448105232122
Sb 12.456879873809056 18.279563664075326 12.642745693564342
Sb 14.616659377775367 8.425632933475475 7.909440774232186
Sb 13.546802156266756 7.544243399731205 10.445047418960124
Sb 6.656699881768042 13.101635372405177 9.599950925097872
Sb 12.320168941808296 8.759280719002184 6.188242285795007
Sb 13.896100041862821 15.784201220581416 12.65920522884919
Sb 9.709872233394508 12.709523993833406 11.398893577760159
Sb 9.300893894738763 13.987675149208417 8.802464768288003
Sb 17.86742044794518 13.15301920778515 11.467509138405697
Sb 15.96335585818466 12.935345310226179 13.632085432183692
Sb 14.961889245388814 14.661236860311302 5.971034038694245
Sb 13.439594041523646 8.023026610867854 15.808398465037914
Sb 15.32376845425541 13.484330027877503 10.106193766249495
Sb 7.80126001329973 10.642307188237215 10.71949128879114
Sb 6.712038022387746 15.88893232887301 15.843742127227713
Sb 9.179363810856218 8.063310223666646 14.534552281857833
Sb 17.96027577932405 8.95157421451137 13.99874806617097
Sb 10.061562350227096 10.80195433775011 14.499642538540304
Sb 13.381334301295338 6.0967966748731275 6.715733757145583
Sb 8.079916371160456 17.958469517444975 14.318380351631435
Sb 8.245530910835674 9.915318544468295 7.952047029340567
Sb 13.795202417174877 10.855570538050724 15.490024800844536
Sb 15.305593242376759 16.77126967433055 17.312208862643786
Sb 7.599856100690518 13.624147952750489 14.227542468209847
Sb 14.37993050740728 11.80083155635227 6.051160563732818
Sb 15.836570973207898 7.092845296577817 14.533506681643614
Sb 11.66066182640506 5.83425604117372 9.09248829589554
