53
Energy = -206.9661041 eV
Sb 13.628945051063829 12.49547249207475 8.198607587390173
Sb 13.062402927541962 9.77560559696891 8.976602191274669
Sb 17.631024231239333 11.291299850394806 9.315509498929899
Sb 10.273152040038019 10.354565727455952 8.772393300163895
Sb 10.749717896719808 8.186062182106449 11.238929254697311
Sb 20.490479965078627 14.034262158811588 9.422540273872817
Sb 14.819987178189551 7.621980019877956 12.405346822653419
Sb 11.068369033714827 13.035288563489313 9.425107472718318
Sb 18.4372556058296 13.468135405540155 7.566117661576998
Sb 16.89084417697829 9.624999520598648 12.43843729074853
Sb 15.438116079345916 12.891137974909896 10.410832459044897
Sb 8.711467444444084 9.944654666399648 12.20093866122148
Sb 9.618798662676255 15.29196972662393 8.45300999491073
Sb 19.2403366053215 12.354208946712724 11.459969451041738
Sb 10.486098312983362 6.46165206701629 13.70862243456959
Sb 11.558610436656803 16.12338182423506 6.524815038340172
Sb 14.420764770028478 7.240623825235807 15.224676689778303
Sb 12.998952844961833 9.857425136656854 11.961008707286393
Sb 17.968335661599383 9.99165496579833 15.077157313379713
Sb 13.501467495273193 17.432475658673425 8.269521049330352
Sb 18.591929264193013 15.183156506811816 11.446501651836805
Sb 7.843690445079891 7.59282935074325 13.859834164678315
Sb 15.727640020538697 11.588840763391104 14.219304552317595
Sb 11.85495404858469 8.594062999352028 15.026387559802664
Sb 14.337086850678313 15.834071989330022 11.473342199458479
Sb 11.113679569048609 17.661614652972155 9.89057868431222
Sb 10.281432800479358 8.115315422784809 17.438034462944305
Sb 16.16799758675444 15.514195688081303 13.622888892385925
Sb 15.423710755414966 9.673586683741169 16.373114073333788
Sb 16.667498238499594 15.227671553484468 9.30196313866969
Sb 14.904247438784783 18.689728884049686 11.499486170899745
Sb 9.72586915129341 17.037017512946925 13.069867155255713
Sb 11.261550773999977 18.91012603409733 7.273766006907133
Sb 11.065273185911867 12.907934143259899 12.405868307815942
Sb 9.762399368605584 11.14478651281161 14.666427460730583
Sb 13.102049637275693 10.950213291027822 19.43172603863485
Sb 12.004283186009717 15.415692089828068 13.60692998129063
Sb 16.529033730432232 16.14347984978848 17.386043904536457
Sb 8.398958795107614 13.460327057348016 13.533467056804298
Sb 8.00058997934321 9.281699757491356 16.16972798804164
Sb 14.272888874392347 14.847492630503087 16.035222752919
Sb 15.813457794023087 18.339769155795363 14.246643692456814
Sb 12.359709571398971 19.959457150551874 11.513938823281354
Sb 15.79382490530459 13.391060802501917 18.04825482374866
Sb 10.270335752980095 10.515796783917114 19.08179288554855
Sb 11.090492386361227 19.412384731794916 14.025675438894723
Sb 9.58403233291399 15.346280428863466 15.396572171176366
Sb 11.683496471087784 12.525005395335503 17.50341014640035
Sb 14.579979451505757 17.227020181819846 19.26483333700242
Sb 11.925397174435155 13.444199055437888 20.25783986233482
Sb 13.37162184392857 18.912811401233036 15.703758050388224
Sb 12.454644144153852 16.726434733138415 17.373535101087324
Sb 14.60395651532921 14.557372979784352 20.392178574784186
