53
Energy = -204.9924505 eV
Sb 8.502705297791548 12.868932578984642 9.89182644258697
Sb 6.536705685443234 14.240489038463144 11.570874417985374
Sb 9.388929630543094 15.434750177259032 8.786490022471376
Sb 7.3379481831873825 10.776864392778368 13.142215492509242
Sb 10.477446883411996 10.994505083034497 7.307576379260773
Sb 9.374385883126427 9.694943179347906 11.281703329335649
Sb 8.847107410916003 9.259724158026126 15.141058624070107
Sb 9.033384692430227 16.73474089411603 15.602096533735173
Sb 12.601244155232536 8.529161659221348 10.59454086478324
Sb 7.643828061575123 16.789594588399797 10.687316299023022
Sb 8.936660447368721 13.216767336524002 12.770497746187155
Sb 11.655513210155549 13.553858346993644 6.758815185839026
Sb 10.296848549631997 6.893130360785338 11.387488169691597
Sb 8.203376659808862 15.301762927015298 18.00434911107109
Sb 13.302488378177449 11.192487531490778 6.713276921202193
Sb 11.033900831423411 10.327808243420526 13.615307980225289
Sb 12.270991879074906 12.128271312739018 9.223476073777636
Sb 11.320602112624169 17.82173042141391 17.019717877363824
Sb 9.950338032883122 17.127540989833435 12.406710317519176
Sb 16.62059050257046 11.870667697527995 7.740894382994997
Sb 9.656646854571651 10.356854680845432 17.709154049310207
Sb 15.341040678997675 7.48053971680336 10.195251313449019
Sb 11.129234863074863 18.557960233069725 10.16829710075358
Sb 12.30773042440854 7.749953149492825 13.316606548771826
Sb 9.893966241678337 13.991158673337024 16.064120129989263
Sb 11.660626313344736 15.513929246070605 10.628563994379855
Sb 13.485503943854713 17.251767302067968 12.949488384521745
Sb 13.47790347432663 16.938666608103315 8.568124313527631
Sb 11.934796383503437 8.602684505700491 17.327442868038894
Sb 15.757792942311243 13.302919292596867 10.27098493462397
Sb 13.153200329891012 19.871505653885574 11.743057596926851
Sb 13.863600362299625 17.121263896557657 15.80433852806929
Sb 14.396325328534656 11.001071200935609 13.818074615066452
Sb 17.99734734465158 9.551545541115557 8.756415949553354
Sb 15.44318767486767 10.50555742903577 11.113719514897005
Sb 11.078552815327724 15.266729278706526 18.395692193653897
Sb 14.92036640022774 14.061258614092907 17.58990558650114
Sb 12.198098576518536 11.416619532570095 16.72783499877332
Sb 16.864628572943587 7.402991111803913 12.530835257803396
Sb 19.347115102464638 12.171081384848277 8.552608905830517
Sb 12.893115355429796 9.184002599206972 19.947153846547163
Sb 16.16883849649891 14.30201201015178 13.557556642934749
Sb 16.084828513532035 16.9080625658777 9.746956511599182
Sb 14.776064351616546 19.435908787753036 9.362280180882312
Sb 15.402782518537089 8.473427804671658 14.820276154829251
Sb 16.301690027896754 17.02869260256806 12.665814107485195
Sb 18.434384966159186 13.106199960983552 11.156801270596347
Sb 13.60952344532597 14.310427017480567 15.020983534940807
Sb 18.215102601157117 10.071280581861076 11.656660811287924
Sb 13.064988406086238 12.357352189764198 19.373380214329572
Sb 17.057044993418923 10.873554086646541 14.89027612152148
Sb 15.344109086206078 10.613651895984205 19.790603637023686
Sb 16.78255632576626 11.860062230940432 17.5906260658035
