55
Energy = -214.45132395 eV
Sb 13.019302935139082 15.254417212713332 8.250422822577427
Sb 15.79532698840729 15.877290761196862 7.835023310749255
Sb 15.932194720042697 18.52572686205807 8.988859653461683
Sb 12.334668986241024 18.742906021726853 11.608474666301001
Sb 18.33400078628113 18.602198193136136 10.661832318238636
Sb 11.351620963338563 16.21370864407659 10.454588104596793
Sb 14.140814331084352 12.717827579243968 10.052878030721777
Sb 18.964160315073403 13.60149950874664 9.475839958521473
Sb 19.99459122857749 16.226138775312233 10.260440878848362
Sb 19.224992140890972 11.913707908867051 11.786717330351673
Sb 15.079334205025294 11.001995615427633 12.376079101313156
Sb 13.241933317014574 18.119532530952704 14.280833171784645
Sb 10.205741835581797 13.260202665329048 12.515103378755141
Sb 14.754150593696062 17.181960754283946 11.237546523178477
Sb 20.80238031607857 16.044413106481503 12.999190397841025
Sb 16.773813673658584 18.199461552553604 13.113060537243719
Sb 12.863735923880538 14.34659513958952 12.12152067550298
Sb 16.398145633359945 14.55703356039591 10.371244730063202
Sb 21.410418512158152 13.232129025855508 13.143799342706929
Sb 17.019024939888535 12.93126634487691 13.338100743360366
Sb 10.790450859548208 11.39715583526247 14.703513326193962
Sb 10.13605129149612 15.848460748848067 13.812387107862136
Sb 14.862570692365336 20.377943962463586 13.438282121493627
Sb 13.659083013090786 11.861201524271468 14.791115822905724
Sb 18.602409699184307 15.683975466566686 14.865708248741102
Sb 11.42929966510867 19.339552034726825 16.158912418151647
Sb 19.35436823030287 18.334898422505155 15.889681537023458
Sb 12.375359609365894 15.08581633501275 15.772643176550893
Sb 18.40249305256851 11.39850139352721 15.41402069309853
Sb 11.442661926871503 8.449425858045077 16.431434807054632
Sb 20.322273840549105 13.507717820103789 15.84609347986511
Sb 10.503305887438172 13.188647086139676 16.99080478794247
Sb 8.661703742016293 15.363290032563661 16.212135055978482
Sb 14.165751309948053 9.085671982951938 15.603364021466211
Sb 10.915094225632393 16.807273553109496 17.595844799836332
Sb 15.819358599363193 21.07858369073875 16.080673777807924
Sb 16.7890385017102 18.614476480980183 17.193646188740505
Sb 13.399842794509985 20.912816973154754 17.68758245276539
Sb 15.385974943686934 9.709582740978274 18.172161286465887
Sb 16.368183067068063 12.280447563809002 17.270276144910206
Sb 11.042169567272616 9.493193236819858 18.89812734940785
Sb 14.547767134196672 15.141004631224739 18.059977739732332
Sb 20.60749940795471 18.7664153601508 18.533889331060287
Sb 16.133899933566006 16.098979642196618 21.12995880214486
Sb 17.69317461023357 15.56709454996331 18.72979250903933
Sb 18.317657427106866 20.531862605389616 18.665881177974782
Sb 13.452103729165607 16.873824414620028 20.074908714356482
Sb 13.072691162404295 11.39881751932018 18.27557156935651
Sb 14.198116451872343 19.681147192283543 20.23093044603691
Sb 19.920702458409412 16.68097182680116 20.37728440346528
Sb 16.944663721992935 20.208966708725857 21.158740824253414
Sb 18.021848390010856 12.795005663520698 19.583609209540793
Sb 13.481349409226668 13.517346238746851 20.21600867591565
Sb 15.985951734856695 13.167761484281636 21.613623321388875
Sb 18.21242964574628 17.85980973863089 22.307511076612066
