5
Energy = -16.04554395 eV
Sb 12.064837373939024 13.207539986944514 12.092056968754333
Sb 12.20497586859427 11.072411168169596 13.672906460735298
Sb 13.969897763559317 13.259973645366827 14.184652692895169
Sb 0.23574427146429636 14.933337328981137 16.086559826106093
Sb 2.0332855678342616 16.201800609946513 0.9532942778526674
