5
Energy = -16.47374763 eV
Sb 13.071022191140518 8.873315214807935 10.217797100252653
Sb 10.443361895146698 13.971259970448024 12.295291737957198
Sb 11.935599603047773 10.416997317966482 12.275494302036222
Sb 9.561878607222773 11.608708418941225 11.178146652766642
Sb 13.025677150719728 13.05805987577559 12.005047604963869
