5
Energy = -16.03187885 eV
Sb 14.137278380467556 12.582548446236894 11.482160509495653
Sb 11.942621882983243 13.344879090842866 12.85450732232437
Sb 12.413538054291122 9.754980718188104 9.6162493353682
Sb 9.989217284372481 10.11867831091187 10.944099048142336
Sb 9.499676534313476 11.979965210447133 12.735905203799202
