54
Energy = -210.25203463 eV
Sb 15.846391061823441 16.036349316142086 8.633132009967952
Sb 18.503441743887628 17.068036891563253 8.268379685568553
Sb 13.816860492663531 11.994288274536435 9.844878417932488
Sb 16.120923231799058 10.709056746852287 11.146733181540762
Sb 14.881306775878349 18.60638446935656 9.500952720195002
Sb 11.956918505301728 9.979624133157294 10.48419593006713
Sb 17.992646451827905 12.755139155164393 11.913104180314496
Sb 13.009684810134365 17.386082472497908 11.419362187578363
Sb 19.086201637106495 17.10741046017489 10.956825072882177
Sb 16.782846579737235 15.405731228414487 11.321620800849855
Sb 16.61342617387416 19.09889913252393 11.759061816969659
Sb 9.817941426491105 15.918335302271053 13.42881017886972
Sb 12.155659941685727 20.05013580855269 12.186535423956578
Sb 14.752173911095703 21.189292889030586 12.808429013473786
Sb 14.40471933143828 11.318413571604605 13.359568979324083
Sb 10.81318112866108 13.592352115009977 12.010044841758214
Sb 12.078010377907445 9.662076518362719 13.311431897927312
Sb 20.30482257751639 16.07729791251707 14.294175238533883
Sb 12.042769745508396 16.930417712912487 14.975481837749625
Sb 15.238902561078625 17.002642552622966 13.261921042735738
Sb 10.81655808857992 19.52285838944238 14.7562617649239
Sb 18.04804795964373 12.802376586432755 14.794705216165282
Sb 17.693590309349222 15.636101967018767 15.523291756369511
Sb 13.67304939622555 13.841032137373052 12.160834626611004
Sb 12.615879269258816 21.152105389700527 16.335878908747674
Sb 20.157093004404683 14.929441613112122 16.94741904361626
Sb 14.886010304864067 19.750697198415494 15.275335080707661
Sb 21.446886411395734 16.85124899215388 18.687839452722237
Sb 18.318652965525253 18.688887053467443 16.826372625410233
Sb 14.041922508198605 14.208408222618582 15.599631077214372
Sb 15.585585042888194 11.780516663814161 15.964635488214935
Sb 9.969254608919957 15.412267474669065 16.28471856841812
Sb 16.781815616759662 21.14171234552875 16.927358456497032
Sb 20.498080501041382 18.920595601797924 14.913563279385551
Sb 12.779883321589077 20.061107764445822 18.99523609413647
Sb 10.29786415168681 11.818027620632709 14.172341846175167
Sb 18.970174638082526 9.796286204847943 21.09491055426948
Sb 14.512077558763826 15.68314541228701 18.21394388734148
Sb 11.561113031889901 12.99753739621795 16.48537744808834
Sb 19.979601467805583 11.741804498686522 19.193492343881232
Sb 12.107533940116975 17.225520277124673 18.918898124102093
Sb 15.611922942979115 19.193936619308886 18.730403874083372
Sb 17.1562438229828 11.428622899368841 19.563756008691687
Sb 22.468362592998044 18.854984063193122 16.939434140620133
Sb 17.636905099495515 15.857519138188922 19.727277697528567
Sb 20.501418674754767 12.043621131668727 22.011626113358258
Sb 13.583511978942488 14.116926219451512 20.400596265998278
Sb 20.00874467629314 19.339337305456677 19.04275436395473
Sb 17.42742226438611 19.839899974140245 20.827409109422526
Sb 16.523289407376307 13.668263730175356 21.237091236927927
Sb 13.43502951891393 16.742836534666505 21.41828415547057
Sb 16.765572486024496 17.30875708371658 22.049709364276428
Sb 18.622804449493604 13.7723129617211 23.287169532697995
Sb 19.486643978396543 16.17071132133092 21.99517249121997
