55
Energy = -214.52428212 eV
Sb 11.99854063364306 16.555576658209073 11.12857291203373
Sb 18.443853705899436 15.292039333957437 11.157838569307279
Sb 14.006676537664655 14.645306074676615 10.22339049840039
Sb 18.55089067758218 18.221510569951434 10.872236504222611
Sb 13.264957316196544 11.845025473319966 10.553017347142102
Sb 11.382814094347806 11.970299220556393 12.691290320889474
Sb 13.320535799577277 20.366253524424252 12.85377982272468
Sb 15.988550632911421 21.537903322606557 13.123378943953007
Sb 15.903660237903996 11.65633950319762 11.744453837607784
Sb 10.427473054810385 15.443128852717388 13.280417274039394
Sb 21.954058474295298 13.633928456239937 12.977589075181584
Sb 17.216353500964537 18.932515905520482 13.362185902096225
Sb 14.305027073235577 17.65291925368361 12.501693179622785
Sb 20.05531498535646 15.77134917508678 13.52469912499333
Sb 20.95546633397986 18.333779445131036 12.479859892902967
Sb 19.404784353048864 12.3168714840859 13.017332481235403
Sb 9.734774146710127 18.049387679560866 14.407025919652158
Sb 12.617838755318486 10.49778973946755 14.83195603695144
Sb 15.386386576880895 11.445210620713514 14.585651034860676
Sb 22.765167386591706 13.653155930987229 15.748941084821189
Sb 12.101872826144316 19.551983010920992 15.343373288785344
Sb 12.812574981887657 14.183081078093048 14.225074332467445
Sb 16.761041773381017 22.011879831588274 15.883194432998755
Sb 15.892077585980893 14.516377169597163 12.469511745738174
Sb 19.621885225401293 10.850096094269682 15.53864833334333
Sb 18.451138262883646 17.653646242207962 16.330753510652205
Sb 19.63803889130744 19.775922627951452 14.71935877276338
Sb 12.821482449175484 17.3860211064695 17.308011400486375
Sb 14.598955123241891 16.468904906266605 15.134319901468887
Sb 18.279292909530735 8.703848924965051 16.885673151696075
Sb 18.20895680271494 13.367201461632032 15.583051372266754
Sb 15.618928202785726 8.809242241687796 15.805447027802625
Sb 13.870322625370815 21.859750745754493 16.538481344482822
Sb 11.925334043611263 12.7563862332858 16.580727562789164
Sb 10.102360974606807 21.352897603072144 16.46613172582716
Sb 20.396872095110183 14.942092198493054 16.803886746043855
Sb 21.975792719100653 11.254859123884696 17.103719213733203
Sb 9.870800167614963 16.996114524748073 17.065138158254864
Sb 17.28478257847954 9.996624922333238 19.41426144617872
Sb 17.07901540530447 19.976942034965393 19.419480884959132
Sb 19.359742537661262 18.17220508822839 19.028767340256646
Sb 14.675588499204979 12.90597971424111 17.498760186155877
Sb 16.05326251950018 19.311754650367753 16.77129040186146
Sb 11.682791906922429 23.273143251650804 17.9711515577061
Sb 9.783336209236452 19.458400587834646 18.544921955725734
Sb 14.638553250406176 10.103334905853993 18.29067178757388
Sb 18.118964868165406 12.903088963259506 18.90797964944298
Sb 18.16895052904007 15.790890619367037 20.13669240504772
Sb 20.981756039659754 13.17882908416944 19.079224122258914
Sb 13.628600153624546 21.713920693572337 19.403391114927167
Sb 15.287029595315591 18.23558794921879 20.859380239804008
Sb 14.400457580769611 13.75084321112878 20.27981759486953
Sb 16.697048684747973 12.395074731269776 21.357167907151588
Sb 15.559745374210534 16.11917258952751 18.979070000700563
Sb 12.595001367523853 19.079090690571572 19.8336386576819
