5
Energy = -18.36399372 eV
Sb 11.732826144178912 9.7117369767916 11.212944213130017
Sb 10.949916378244227 9.200609767032976 8.535909457446744
Sb 10.56554514021892 11.855959042966786 9.647055468151327
Sb 9.1463043841711 8.51128882170836 10.709125083864464
Sb 7.929275568670193 11.086960373036677 10.447897850862349
