50
Energy = -194.27884739 eV
Sb 9.776943920436548 10.254241831039256 6.403707352753044
Sb 11.313424938185578 12.658051327769313 5.810636703202066
Sb 14.236858813384705 9.554752898649175 6.362394710366251
Sb 9.464572976274217 14.223432448638885 7.417041863308206
Sb 7.56389731513805 12.069623124286961 6.9025649295342975
Sb 15.177539312546918 14.352067359146329 9.842015369967916
Sb 11.627014669847894 17.137492418273677 9.463633861698652
Sb 12.139797656659667 7.768930327229091 7.300401168060631
Sb 8.473048400075585 9.356161439201856 10.570299990931586
Sb 13.301430025855883 11.903538901778985 7.791409157415646
Sb 11.2927101699012 10.068387083009785 8.90923342248094
Sb 15.86662136248662 8.726450896426249 8.612320218482033
Sb 15.856339622592818 11.918574519530429 11.313015431509104
Sb 9.004784422681393 13.642443428406155 10.250940542942915
Sb 6.8937948015315005 11.705714140203005 9.714819306740381
Sb 17.254132496739683 15.76734355226792 11.372038916024477
Sb 9.463967922075016 17.59875360950075 11.379426935110137
Sb 12.536264878964701 14.861889071779546 10.93440002263552
Sb 15.20348183869082 18.333893985375546 11.925975807277613
Sb 13.953883161857123 8.763538340800915 10.799500047662846
Sb 11.139233725936347 7.937531778725235 12.857036673759834
Sb 12.741453536729873 19.507241319846354 10.825364466848491
Sb 14.074691448663426 6.479868763578296 9.088058321657522
Sb 16.39760007720869 7.81921202900509 12.098638869635373
Sb 10.085240953295905 11.416234945480305 11.895728368669408
Sb 7.032867683258323 8.9694515664688 13.029319934553241
Sb 14.195594172555653 11.292723139013763 13.690348669325227
Sb 11.328744226170059 18.750367575868992 13.231001145335624
Sb 17.97141744759464 13.262441482589523 12.751364585047696
Sb 12.751773984883142 5.958889725743952 14.264934283101413
Sb 13.299889187755863 16.59706470209927 13.219804639585693
Sb 7.901801660087089 11.540541757654138 13.871279172937168
Sb 11.504201340680268 10.2160647637514 14.571781194772974
Sb 9.18300029265377 7.3840517708653675 14.961816047520573
Sb 15.475318218569159 6.816855155001219 14.630205164099637
Sb 15.259124551056413 19.243753686286716 14.716332564603201
Sb 11.18815554587286 14.024105724059654 14.124931332980086
Sb 8.7810580452067 15.30317340724792 13.043662271968845
Sb 8.847357444933614 10.010971503004754 16.236125752169876
Sb 16.676566378468518 16.964758949252992 15.809167611254068
Sb 16.378041103890286 9.567588276441311 14.41736887793046
Sb 15.90275743723573 14.954536775508387 13.867470694493488
Sb 10.120803996444884 16.348960936184312 15.507758149194173
Sb 11.556056383972772 6.670197314657766 16.78357602651957
Sb 14.431455107005467 13.029351230081305 16.000055936377407
Sb 9.557144199157845 13.675485587123834 16.477248420854682
Sb 13.85801595481113 17.10390658946019 16.173308683109944
Sb 13.021409843327351 9.107392133240523 16.84677867125389
Sb 10.968301976553704 10.451477804653129 18.309420170465
Sb 12.10061515622743 13.060718689924707 17.754537328003888
