51
Energy = -198.08893229 eV
Sb 18.325174147240137 9.290428704868427 11.086875827401336
Sb 16.14394642976324 7.4750594761274405 11.493406214224954
Sb 18.096862175792932 14.527860298456833 8.747050702378061
Sb 19.22282154033869 13.208665405577214 13.01148940009456
Sb 12.223290975025968 7.627305315336759 10.570713234429308
Sb 18.292581610714183 15.507984797160882 11.466775899820739
Sb 16.370288252137865 7.631853263435477 14.62889076891213
Sb 15.615461864191131 10.184758199260573 10.945968267242971
Sb 17.136342420957014 10.254189698978484 13.56618040782279
Sb 9.411388256658274 7.112902875998004 7.796150626441044
Sb 15.309491689106293 14.559459514653156 8.009719692916915
Sb 16.414015575963816 13.859961135265614 12.901838546868849
Sb 13.556154806294167 7.168133466694231 14.160543324457562
Sb 18.76006753536301 10.806069261326932 16.12869426242656
Sb 11.25642430234236 9.269889890909642 8.376317818503617
Sb 16.864320431950148 16.98321691842476 7.820601984754024
Sb 16.447077660410063 9.459889986251005 17.090716085377846
Sb 18.058625195170993 15.039212057813943 14.941858141249341
Sb 15.871303526985212 17.914194572801627 10.411200837188597
Sb 12.407941151783422 9.440653395089155 12.831100392442147
Sb 11.799953780353649 7.585883602803604 16.397649396772845
Sb 9.92335987284074 12.483901266057954 10.893719450693254
Sb 15.138001632997277 11.873516052647973 16.203853196849913
Sb 8.54202748692998 9.348435053177887 9.380981688291913
Sb 11.785023672014027 12.875508687096668 8.505009725493514
Sb 14.261956493342169 15.513518387485085 10.549582160142416
Sb 13.621850531319511 12.10268364670212 18.65558477621784
Sb 9.41002298261722 6.924835765005689 10.70777260326539
Sb 17.5414602657828 13.182482740353612 17.135351717420292
Sb 12.938985445126107 15.727000470646484 13.805914274307085
Sb 14.713167981170377 16.926977016246394 15.869068568458417
Sb 13.039858263965817 17.97086805349224 9.741527382692865
Sb 10.628603197554321 15.41494587221202 9.037416092482957
Sb 8.928757074108141 13.158516210761958 8.311936231942923
Sb 7.740506284391164 11.302699196058722 12.656275063078171
Sb 10.075373893398766 8.33362336067098 14.206044932519656
Sb 12.741853932381206 16.91005268759598 17.954162066591564
Sb 11.579117812012804 12.00776468751156 15.33687084561484
Sb 12.88717941898552 18.400777179930362 12.64307210964808
Sb 10.108751859895355 15.247595615940265 12.044285689142605
Sb 11.518900097328023 10.35799488860665 17.696451665571878
Sb 11.150328653824252 13.392093991515758 17.84463768817149
Sb 13.036090917273997 19.233032149649087 16.40649439301196
Sb 10.801390314738946 16.12588578777179 15.786586117970604
Sb 10.221898729082069 19.44746243182454 12.680959280955326
Sb 8.296938017328127 17.491762927170658 11.698842200245213
Sb 7.415032491816558 14.130351460685464 12.874433151737179
Sb 8.935416257091106 10.83868655001882 15.211584583532924
Sb 10.004509619470817 18.878286333367864 15.501400696412228
Sb 7.934577868631659 15.065402282495539 15.522503868482222
Sb 7.3482627695277 17.616776136316144 14.452080526983359
