54
Energy = -210.45626701 eV
Sb 14.142514145202629 14.654136412605132 10.333439646653888
Sb 19.415844826148156 15.42281246657664 10.527342186551788
Sb 17.902541391232383 17.022414028220297 12.239778308608413
Sb 18.479123198033218 19.58306951113197 11.076751563223974
Sb 11.912651305793542 16.117142104711924 11.473066813297313
Sb 14.264828391212873 11.838546633056012 10.853673929391276
Sb 18.21768895115034 12.915694025705907 11.303305981954315
Sb 16.032067711917463 20.46139974976424 12.339371532816893
Sb 13.493197344230738 19.75598601253923 11.207818143387263
Sb 9.839064536762601 14.949487974710832 13.130071832847404
Sb 12.406856192555395 10.818645413142432 12.810234964845879
Sb 19.12086866442115 20.591109165321573 13.74576366012593
Sb 21.662879150401732 14.919037206131977 12.672033564413377
Sb 17.193028881853188 22.8425825023829 13.513600305581576
Sb 20.800782939578063 17.47430830812553 13.797578617233878
Sb 15.706686740363974 13.646827646926749 12.565281401782059
Sb 9.807895539462827 12.063026296431852 12.984980903861599
Sb 13.202667734585923 12.287707101064472 15.150001634433693
Sb 23.20492554375394 14.983556175724562 15.320418717369462
Sb 12.157531867142254 19.723576468474548 13.759674824723955
Sb 16.856613027115788 11.509750294216463 15.201020388402414
Sb 23.164943224047256 17.816680790701852 15.638008462561094
Sb 10.277218116506978 14.871788365335568 16.02184138110148
Sb 19.421300218987035 13.604441807484088 13.922372732259971
Sb 14.62820722477779 9.970308228772536 16.18279844730956
Sb 16.232771315173423 21.779564174503598 16.04857528011666
Sb 13.875939287163312 17.503299931423648 13.098014377988513
Sb 10.434431108197245 11.954945313887357 15.878852272173893
Sb 21.042300519993244 14.753478345806839 17.180965416881612
Sb 13.041558394742882 15.706921244773895 15.85986629988665
Sb 21.826981224588586 17.567067596611054 18.17068040842823
Sb 16.79648942058842 19.17658295480691 14.894593811804725
Sb 13.383588567528905 21.567345698715844 15.675017250906718
Sb 11.51701964118156 17.991594951377298 16.886465296878363
Sb 18.968315677895283 16.327170256795785 15.715644316101868
Sb 16.77074832654221 13.997745036086943 17.025601552622597
Sb 10.06889197512756 17.169782215294724 19.236085687130544
Sb 14.295218052904058 14.795885043239215 18.32795994957246
Sb 13.242794842472655 19.97205367338695 18.092375659646663
Sb 18.85226615095097 10.355172105180731 16.808827607250937
Sb 14.845371693379072 10.493621758236381 19.03411751243389
Sb 19.498847334847817 18.90854735758036 17.201264115981132
Sb 12.723528285950762 12.397480464317024 18.810452143810185
Sb 15.326963875730003 17.914569171772833 18.10867560020397
Sb 20.89197602306273 11.848454345403514 15.622485863510004
Sb 10.616016980990878 15.280240909363886 21.36845403094836
Sb 17.297736208067512 12.078283650555068 19.072369267764838
Sb 18.490612664363326 15.668925371985068 19.330484252722965
Sb 12.750774986767942 13.406561703086858 21.541146724158196
Sb 11.663802823250784 17.9617427010762 21.507640560568237
Sb 14.807763999196965 15.341803688833464 22.114260644472534
Sb 14.52375460677697 17.925698990171487 20.940046456083273
Sb 17.811667078718006 18.446337648247113 19.526429872392036
Sb 17.283279633459333 14.058426575073076 21.34575538967267
