55
Energy = -215.53374233 eV
Sb 13.022369679362827 12.081532589283155 9.501419770363603
Sb 11.289969671685425 9.84038312326815 9.323197125767752
Sb 15.603071890421633 14.54195888302126 10.446649023541713
Sb 11.547618446943748 14.277681545459675 10.581306224106893
Sb 17.383606774383885 18.306390391719468 10.873975282348862
Sb 17.31826637790881 12.2052606267836 10.336719435171942
Sb 13.111853382721812 10.134491252012184 11.620766154567793
Sb 17.429097868061678 15.768439866372143 12.345676647303057
Sb 19.476476123218013 13.957541158379081 11.235164596379452
Sb 14.493264265269172 18.00405905556368 10.716862781198289
Sb 13.683447757516555 14.074466379379727 12.535394906942015
Sb 9.593559360595425 13.003210362201447 12.203789025517036
Sb 17.855000006964087 20.064186124515444 13.140074644184761
Sb 8.958732298330737 10.56289654805539 10.86557361350033
Sb 15.77455194776983 12.757349189547682 14.701287499741994
Sb 10.744879988641467 10.59595144430072 13.219940078491481
Sb 19.67583016957824 12.253068599902722 13.59522567250353
Sb 21.554369513138788 15.326697612122752 14.365494776435979
Sb 15.603127079729296 21.89983924845663 12.93801124130473
Sb 13.483661729912765 20.602438565650086 11.52588020760634
Sb 19.031077433844782 14.460592338805535 15.417481168295241
Sb 20.42236718314264 17.923985978450542 13.592492806261285
Sb 14.149399551020014 16.856998830585365 13.342943451257591
Sb 17.8712443699653 17.886494734928267 15.079658155067914
Sb 11.318240196901613 17.152808061130585 13.18099047682606
Sb 11.407351784424211 20.055437036165223 13.441807311327933
Sb 17.144145044819258 10.92322243770932 12.944341734724041
Sb 14.655201769637433 22.500998580502632 15.605528624521224
Sb 15.036973700134839 19.725626060173372 16.37553295396566
Sb 12.388084343618361 20.780483992234508 16.045098553449332
Sb 13.389742117714192 11.149454081214587 15.293671494267702
Sb 21.722601931958696 19.283385992679833 15.847197011400816
Sb 13.71163546367162 16.679776751881597 16.80564417191667
Sb 17.430587266923716 11.191707534936768 16.57612984875748
Sb 22.69364958145438 16.673567065991456 16.677089275508205
Sb 11.066557419584088 16.002418306943564 15.83096626389289
Sb 20.28371765014134 13.37086745131786 17.80864609850374
Sb 11.623111355910366 12.99525289218014 17.169030090209322
Sb 15.080897298585203 9.593131089467635 17.07010769899292
Sb 16.641720041486806 17.204547963446267 18.80369446599813
Sb 15.505748535328646 19.849315966033394 19.254778174683523
Sb 19.118312970483714 19.706537675766814 17.011491487786337
Sb 11.789410078741962 17.43660384761206 18.783338608052873
Sb 17.430547832250177 13.40575691428603 18.447792814696488
Sb 14.294159720788196 13.923296106886744 17.48424438592251
Sb 21.1530149719424 15.868131920161746 18.95677511273607
Sb 10.47692190745534 14.926804822227286 19.364159135864043
Sb 14.56645877762679 10.113373416237351 19.86597702934755
Sb 11.916537340621364 11.183033878823782 19.531318617473858
Sb 19.33222181924685 18.08651723402442 19.379766297525514
Sb 13.488058932711668 18.52944820174004 20.920779133270536
Sb 15.60306547785035 16.636174386685507 21.4587848996743
Sb 11.9043933708789 13.404332472375815 21.375055565624248
Sb 16.385853376618712 12.14010718909953 20.872393007253244
Sb 14.449515179486276 14.207246350422498 20.398165497090908
