51
Energy = -198.58751933 eV
Sb 15.046405141581367 17.286867265607203 7.909740409919302
Sb 14.607337368966817 14.718183745378413 6.673049289889957
Sb 11.656140350596885 17.45106252109533 10.03835203986929
Sb 18.03022685425036 17.198442206651137 10.856935754333923
Sb 10.452083123758422 19.370362035295337 11.900235107557162
Sb 17.813015016254727 16.479256589846457 8.030566292643806
Sb 12.099868769180144 14.038217841166928 9.647856433951453
Sb 9.108250841332326 16.90800956151454 11.238861670062764
Sb 15.234076166560087 17.982572681009437 10.715876140033819
Sb 11.747764883904818 14.215124499009608 6.75609416434151
Sb 16.248530529371248 13.090553628127319 11.601288313520191
Sb 9.77527313805975 12.29778716413838 9.293710524835376
Sb 17.16726564489734 17.32139634178488 17.515017656652326
Sb 12.676486392417091 18.756813291731806 13.642084572594825
Sb 14.49524305798326 12.630906468445971 8.710185942902601
Sb 17.67648467105376 15.356053282494932 15.417770519768698
Sb 18.312626269797292 14.472945104848693 10.064358522892938
Sb 11.211121669273426 9.954406573299648 8.490394433662699
Sb 8.94313361485938 16.72364361893683 15.140094744570165
Sb 10.242366173693512 15.054300237927377 13.186696542682787
Sb 13.080352979962388 10.372493189678902 10.656305321614626
Sb 7.915531098905774 13.353231728746083 13.182799646116251
Sb 12.828540179047772 11.503886914991426 6.592533368335756
Sb 13.340388521273615 16.315888503215298 12.148847810499731
Sb 15.201566672033524 16.79947468113371 15.482772430010638
Sb 17.78265349861577 10.742777603825761 10.967042281623353
Sb 11.430396274939493 17.820876224331442 16.106459786187337
Sb 18.741585833348083 12.521289004098726 13.030311328966919
Sb 8.70458248200946 11.014142343018088 11.655868882873241
Sb 14.289873354601799 7.828086247898866 11.23630748992844
Sb 11.753649653126892 12.298351606329355 14.461007255286928
Sb 12.726214749922514 15.27597135524715 15.785029663980268
Sb 14.643632685897453 12.657353860256014 14.643976970937715
Sb 17.795799999669008 13.123777438211656 17.2594940918524
Sb 8.767547089543097 14.934058223537843 17.409412160335016
Sb 16.13272167451119 16.131952280537963 19.88603376847107
Sb 10.38546894250268 6.791434046574211 12.357278090570695
Sb 7.568271024978228 12.728002876808313 16.038627621662034
Sb 11.118245585380851 9.888615802442667 12.767342768182035
Sb 16.641868102261864 8.699501442155752 12.651899489321558
Sb 11.555390202714342 14.124030404002559 18.179870958499762
Sb 15.11311978898449 12.250449928176485 17.558702517073456
Sb 18.244633711853844 10.927646382417066 15.389782890521863
Sb 11.780090224769328 11.377884779997572 17.17791028594692
Sb 9.434020230611704 9.053367663540408 15.210260691793431
Sb 9.003071825771256 10.716884397137976 17.567571693824384
Sb 12.966087097824573 6.573962106263425 13.530566035625588
Sb 14.402921355066182 14.061500418142055 19.69770667840463
Sb 15.556480557800825 9.922532978379603 15.003048949959839
Sb 9.59515259974356 6.165010592044754 15.08213463352988
Sb 11.864886708695 7.718773290348976 16.039866531630942
