5
Energy = -15.78894807 eV
Sb 15.833750775160453 12.566154957469221 10.947908220671835
Sb 13.488372581712584 12.473567792706442 12.032852403221998
Sb 11.789394095778153 13.250314337393787 14.272487114846742
Sb 9.664777880372958 12.07086702678014 13.22700837372585
Sb 10.917332514037756 11.229355428240018 11.078070225023946
