55
Energy = -213.18601435 eV
Sb 13.361376077107526 18.916886476903144 11.09185944265782
Sb 13.254704021698416 16.229775244999605 9.599508175412986
Sb 16.01636278558764 15.334402939817227 9.398592150045697
Sb 17.257694812947683 10.948512418758748 10.533724623231041
Sb 17.169535348433957 17.86934672385306 10.368558784654534
Sb 12.852929672611998 15.113154381166444 12.23214192713905
Sb 16.45253749224393 8.862909698207694 12.405697480008783
Sb 19.70002701475812 17.868651466772885 11.836119517340595
Sb 13.796184023146374 21.556126751076132 12.998648743333382
Sb 11.903686212069465 12.345685670618655 12.129773794911802
Sb 10.239019494594366 16.091822213612275 13.011242938234355
Sb 13.652555811447272 9.446610872397905 12.844512384980565
Sb 19.707306041191636 11.532127348890523 12.152766173882615
Sb 15.404188361399061 17.56883299288612 12.622769498836242
Sb 20.4831068490286 15.126001903073107 12.081176212025413
Sb 11.15485820118704 21.005337806383253 14.026605684393257
Sb 17.03744503895512 10.589799602235104 14.622287222499729
Sb 15.89183574438839 13.32638075497653 11.549908890027893
Sb 18.34790416513564 17.778746087794154 14.369756708791252
Sb 18.21726990912854 13.70776901672023 13.416864437506964
Sb 14.031595070031113 12.04164359316109 14.05412465071864
Sb 17.944677214714147 20.61809339966239 14.7607677699373
Sb 12.040775024453774 18.282710858015065 13.620087131764894
Sb 15.193675033609832 19.709762702172416 14.649350221100935
Sb 13.179522869216884 8.58282794254445 15.582477466274412
Sb 10.026165017191286 12.126951051194304 14.37520068623552
Sb 22.083612768095808 15.703201611789531 14.450110523746098
Sb 19.67164522507203 9.446933978068248 14.213803763484286
Sb 17.52523366251977 13.060976875337731 16.84991149852946
Sb 11.225454058861299 14.598703212313834 15.333892204457864
Sb 10.880487513779023 20.050868255838672 16.807173948224932
Sb 20.884139231982495 13.11318747250422 15.048979383403353
Sb 18.277564343951887 19.998913161814077 17.604354504544197
Sb 12.488813635757774 17.644000805396267 16.853960402958695
Sb 15.751686053481748 9.218802000437252 16.811630102454433
Sb 21.49653006282588 10.555330420426005 16.20050172517268
Sb 12.146827728962126 11.245183818718555 16.188382132254723
Sb 14.681360479068294 21.47373642247747 17.616481333502083
Sb 9.793686329521677 16.53282984715997 16.97485499920943
Sb 14.044487800425816 13.983963711913413 18.297549247531016
Sb 17.870561129752716 15.982505544892733 17.458853472456582
Sb 15.668306889208163 18.74634057414952 18.033621804166625
Sb 20.35655674083094 17.112764667038693 16.336344578723427
Sb 12.22239139751588 21.162671140064123 19.131615909140287
Sb 15.68357051154456 11.576359511447553 18.637688099313177
Sb 17.038617525850228 22.108404347693735 19.238746335238105
Sb 10.38714936710703 16.411692215211332 19.849959310588126
Sb 12.681664343141467 18.28750870127899 19.779288752990567
Sb 20.202233602063412 12.626085671491122 17.796908313556585
Sb 11.670207830671451 13.831208239701718 19.951821411116317
Sb 18.23690630869663 15.527574430539437 20.28313341506536
Sb 15.466277201796194 16.3491312700446 20.433008173283284
Sb 14.286555257352937 13.821136009510377 21.178943292898264
Sb 15.907593252748795 19.889984619400114 20.71537612997943
Sb 17.46215883512186 17.768347939434374 21.997798910050694
