53
Energy = -206.10123828 eV
Sb 17.01828022201506 12.41132671157486 9.989513286480893
Sb 17.40461785536855 10.021229453179812 11.59718320625016
Sb 18.249773008347294 10.104296496892278 15.68556293563875
Sb 19.155161521348955 15.218779780275716 11.568521605410922
Sb 17.678013859217028 13.801899310167784 13.619804963824661
Sb 16.749310695919938 9.203571848705703 17.946563211539637
Sb 14.934980484050763 10.354054019131357 10.081231295311976
Sb 17.34918777297061 7.3810955020579145 15.74045233643067
Sb 18.240419756695424 16.604256374744313 13.95423473498555
Sb 15.014580370651572 16.177001776235837 8.357561603589167
Sb 14.795941605042444 13.477450014454723 7.21781899336248
Sb 15.471628113346666 14.059929407489225 11.75909091239432
Sb 16.57855919906826 20.174630080946013 12.805714145534033
Sb 14.844725866487215 8.098305671672891 14.329707600375087
Sb 16.15769415062132 12.525062444966055 19.15415033627891
Sb 15.950001942892307 10.740193117573535 13.974122617899464
Sb 17.268010786181645 16.955266271832482 10.122952489387908
Sb 15.784634273160705 17.386229873030338 12.579807672829414
Sb 15.413907145535063 14.465248492045648 17.172402715489543
Sb 13.223299513565106 10.932615800105825 7.078345196463492
Sb 14.058167197372295 8.695840903381491 17.022969117191504
Sb 11.31745231083146 12.374446278496949 5.495284895705417
Sb 13.587742919156657 11.877926568283753 12.168887093679704
Sb 12.77509360093384 14.860350084687644 5.734504319682132
Sb 11.814739698635801 13.242592213938892 9.821154338637664
Sb 16.64599678416745 20.380057939968868 15.650719925677913
Sb 12.098590918184591 8.514497726678332 10.489911550132488
Sb 13.448312407574988 11.64808905822958 19.629776254256843
Sb 14.710433849488998 21.8907934198918 14.141479781475606
Sb 11.041950692190284 17.106657717573896 8.974438722389305
Sb 13.19644024407733 16.318204128153607 10.503011287071647
Sb 12.608324182152302 20.463052979878515 15.607947011339226
Sb 14.049652967560483 14.448745734763502 19.72045829583934
Sb 11.418819280042479 9.240823816389224 13.211559576496375
Sb 10.451812580790488 14.38420100016056 7.466124914511043
Sb 14.522561327851957 18.58688897365392 16.687425716023494
Sb 13.40378642983865 13.294780570486036 15.469243744960668
Sb 12.907049369377043 17.890416640839096 14.40063396938309
Sb 10.981796511616809 15.151476358166054 13.052096940939649
Sb 12.403561097489971 11.079967762924577 17.021391007848102
Sb 9.057948267919414 7.076547872745673 15.68318062963889
Sb 10.938779665388115 10.629699326802076 8.816393495102277
Sb 9.311390059695137 13.66269369954166 11.253444840974693
Sb 9.742468935243595 7.372120782083795 11.79928139390123
Sb 11.075904407980984 17.320178858014 16.598555934700737
Sb 8.631025078091824 9.865506725263641 16.340999150468765
Sb 9.25849265126043 16.573533926645677 11.186625017316034
Sb 6.553385887927046 7.555817312996694 14.310611331204779
Sb 11.310571379473647 14.489514269150789 17.105654725471837
Sb 9.034291139566133 10.171846496717793 11.876194673143491
Sb 9.242391813555974 15.483401660907104 15.308889973280992
Sb 7.0258216247139815 10.389801700977404 13.975483972754308
Sb 6.739281517409133 7.819951351756337 17.193641226056624
