50
Energy = -193.64316725 eV
Sb 15.4399541941083 12.509128069754228 14.422118860323632
Sb 15.531283823348135 11.895096460954067 17.33380330489457
Sb 12.616784360621594 11.873120290850965 15.176435970106851
Sb 12.266231923079776 14.718538590239117 12.730755256457783
Sb 15.127211613550815 17.165876057566916 13.165799027590614
Sb 14.101876735025268 15.038481952186586 15.02397464568034
Sb 14.985557137022742 14.71754298877903 11.62114043713796
Sb 14.844705788604372 15.75275091997507 8.888423494911999
Sb 9.969256214908015 15.852046359636983 10.171118666109207
Sb 9.282704414038202 15.437679920607415 7.397094704272195
Sb 11.421551544631583 17.208621985425374 8.099045107251737
Sb 8.711181407448697 17.99597382852563 8.769566571908012
Sb 12.296416749268102 17.616448888170865 12.611017841515379
Sb 11.602683179297397 18.28306712835285 15.362776220575139
Sb 10.396314696383063 15.925993725027823 16.504738783803727
Sb 9.144516955270818 15.633143462615385 13.90184423853723
Sb 7.720336594703527 13.47736709763374 11.519237466150805
Sb 8.734388393986592 18.0294738938247 15.469320748806918
Sb 9.20122908099369 11.886533333199301 15.321369063869591
Sb 13.576465518073292 9.749826281336976 16.91223376342541
Sb 13.128219427253752 13.488567123841731 17.559303652974158
Sb 6.900598785796017 10.211065189514846 15.086651530212956
Sb 7.208615397990772 13.984992727035099 15.347406206068182
Sb 5.801338470353927 12.334347765267875 13.396195727082311
Sb 9.97608745601803 11.927893977505533 12.447218214454873
Sb 12.829144643875761 9.359598961415793 12.736939860359442
Sb 12.197709398445305 12.13046396549333 9.31576232504765
Sb 14.368313527841973 7.791170508969276 8.448779044007091
Sb 12.088071359786362 6.35499139059388 7.304513470771493
Sb 8.532060319995788 9.768730547980404 11.113948207895117
Sb 10.077231874203504 8.447708604522088 7.2077349375509705
Sb 16.861232187649982 13.445286739751081 8.633791231601377
Sb 13.336876501568527 10.268399167113662 7.368783516125434
Sb 17.454557820831848 11.33646293069064 10.54262634894205
Sb 9.872996400977646 12.172139529706055 7.625511654655046
Sb 13.38179066331326 13.949339202028673 7.327123392913358
Sb 9.902638193103336 6.28872418875225 9.146217185876239
Sb 8.920391736097935 8.362459599898301 14.042807270484689
Sb 11.80485425846106 6.620213260865588 12.89324314741985
Sb 7.527050654050797 11.711025010725358 9.199756635668448
Sb 15.092506021902725 8.32671274795969 11.261312063355449
Sb 17.73440791485619 10.1307764767798 7.98234945419133
Sb 15.605626458371706 11.909975354102441 6.5215701409869045
Sb 19.539418689962307 12.16204276774808 8.731902352147431
Sb 10.048427118933581 8.32763865157294 16.73456136463059
Sb 8.436117811901054 6.130532707087446 15.80352743000263
Sb 11.00052200767138 8.838591401981205 9.923750659558738
Sb 11.31439556145887 5.976379198639732 15.69619170672842
Sb 14.668401193735747 6.2565984176534375 13.311495036359243
Sb 15.090297735652717 8.89101081728945 14.557762142174274
