54
Energy = -210.52411828 eV
Sb 19.10485897612546 13.76434730321403 10.229115865467088
Sb 16.51467614178444 16.593756476094754 9.682950699102173
Sb 16.86547538925867 13.776036269885992 8.481805874865644
Sb 14.93080979834541 11.974906476232398 9.612254719188112
Sb 9.831706165821634 14.903100101097772 9.257561872182245
Sb 12.4782460954077 17.616175708174612 11.987812570354592
Sb 13.721254997676496 15.919038870081884 10.056742107748684
Sb 16.4933891687803 19.58949425620456 10.930126665069611
Sb 17.908470184835906 15.702870055652644 12.098885143063836
Sb 13.348969583484799 13.510672783928902 11.538524721210573
Sb 13.737618612612673 20.178961618859113 11.358120021170178
Sb 7.230897246022866 14.42666345493936 10.365453648368987
Sb 18.98031883493196 11.279444123658434 11.68374869416016
Sb 16.145057420486857 11.002873724965049 12.040452770014337
Sb 19.105415880267678 13.045725764492516 13.975613100498467
Sb 9.035090337858199 16.283357475644245 11.62469121184953
Sb 14.302218924525855 17.42438702844621 14.296622375966267
Sb 20.32038025465837 17.335485343440325 11.688787613423523
Sb 9.579197635355099 13.487100187200575 11.725894263049076
Sb 15.565947230134462 13.472056889454286 13.451424776282572
Sb 16.95503869025862 18.943417546769123 13.618827657776151
Sb 13.44481438979206 20.204181446027228 14.264880164084854
Sb 21.90058424431883 13.360609948119931 13.374166819234604
Sb 9.861876775127357 16.850482756469315 16.701272612400277
Sb 14.61774872973636 11.412395885834261 15.297828976140597
Sb 22.036195132040284 16.22122505454379 13.75682516841767
Sb 19.828942515033585 19.024503517664076 13.998700943866774
Sb 19.63194411645892 16.44667731425641 15.331605703647114
Sb 13.962057939776587 17.690594912961615 17.30975242055641
Sb 15.979185247460014 21.237649762009898 15.098768723051855
Sb 10.554914241073636 14.088759016115857 15.976943464747015
Sb 11.42330667842142 18.821188748847177 18.155929477590554
Sb 20.500047816989852 13.742259553602063 18.225745634802518
Sb 21.098378874987542 12.095225450340871 15.857870073429481
Sb 15.61091160720726 20.083862364391706 17.71403712060671
Sb 12.313816136738518 12.016822615278864 16.95982416123195
Sb 9.386923753194523 14.712951658164528 18.56611379363842
Sb 21.363552764887725 16.442110031650564 17.622986281752183
Sb 17.02247113521234 11.37642879496174 16.9467867000817
Sb 17.592364223192956 14.05834049167557 18.142756362054076
Sb 15.603008811487307 16.565019888434115 19.75694283888287
Sb 17.356056418133225 17.744725427092984 17.696998184608663
Sb 12.038475504156013 15.351564248184193 19.54127336822505
Sb 14.2162460258677 12.97740584223916 18.889828621659163
Sb 11.312976546260447 17.77235633180544 20.863674999334492
Sb 14.081908149278648 18.497001204437115 21.361221852522117
Sb 19.686059966483754 17.920110545262876 19.473746383750132
Sb 15.713440079452049 10.606470960892532 19.402916483835128
Sb 12.609950121154576 13.111768466714922 21.28988730209243
Sb 17.342113346054315 12.758469487605849 20.715411002888665
Sb 15.15888589425945 13.770248676848713 22.477250673779547
Sb 17.35417004499209 17.58854871584256 21.981785520504065
Sb 19.162894227770742 15.621531400407724 21.14162808550547
Sb 15.011365682309153 16.531262730822565 23.331848418209162
