52
Energy = -201.89145458 eV
Sb 11.553435860331541 7.899997133799985 17.098968127560088
Sb 6.453255689196832 15.252695504452426 13.220370137027873
Sb 12.968596297123236 13.289076130806533 18.33517801970653
Sb 11.235730846703502 10.689972318088325 16.47107615378699
Sb 8.643671900837443 10.73229696144381 15.211426891302976
Sb 8.953961524991525 16.482611806930446 14.023671303946244
Sb 12.327314720359928 13.902651103911346 15.579373655906773
Sb 12.050995193254426 15.661471567770274 19.73491930299099
Sb 13.422079182386248 7.682691905932179 14.836185612229071
Sb 9.115742753217388 9.304670674091751 12.77878494231495
Sb 14.063712319085896 9.143187016442926 17.99044206552118
Sb 7.06230237356442 12.699358952288877 12.028989368844467
Sb 10.939442975722868 17.149433548696884 17.535669076471915
Sb 14.549219610186531 10.325197421573199 20.582967069443818
Sb 9.704742868115362 14.838302798441909 16.309519848351485
Sb 10.860047149358506 12.425780957751503 9.318490228168315
Sb 15.472145217012033 11.382815583431375 16.462086326321028
Sb 16.888826033550046 11.010355152640281 19.083122118795945
Sb 10.27207548597558 15.531555674389379 11.643395694981779
Sb 13.060619456730967 18.63344204450436 10.153604784904603
Sb 14.678220482962887 15.669369626998327 18.50674500051806
Sb 9.732007577193636 12.107305691394476 12.916780493325257
Sb 17.03644159004022 9.490070626287709 14.987354054868845
Sb 13.41408849707231 16.579435564181974 16.05398188616778
Sb 16.291680181374293 8.244890479227536 19.605747616587593
Sb 11.952676291568354 8.454973660305184 12.459270706877856
Sb 7.591487016828327 15.124609995381022 10.560339703679697
Sb 13.075884388211618 10.530530216277963 14.171539808164933
Sb 10.465287642758595 19.792934675931804 13.19735390470224
Sb 18.925218653070772 11.622526350965144 15.561142713236576
Sb 16.75733021757116 16.65874799188203 15.354473334554925
Sb 15.16212083897075 8.481783995428552 11.640178108153412
Sb 16.911837930921436 13.767317010347023 14.712109132573381
Sb 13.610977938682327 17.03993614472519 12.537822609512713
Sb 11.514286751987537 9.641468718363708 9.173637265981354
Sb 19.339292174206882 15.307838703879401 14.966199843852205
Sb 13.172259741796438 19.408201839864727 14.098297115126684
Sb 10.257241945313325 18.293393115924726 10.72745051705179
Sb 15.409636636667914 12.149204181373868 9.061500156823659
Sb 14.369703859632997 9.48131826066717 9.071661905322776
Sb 16.08873731573227 10.949068130957533 12.667445331955651
Sb 19.15418770653593 11.634938821555714 12.753046992686219
Sb 12.696154618713667 21.047610937334223 11.736432890097998
Sb 16.492709031991104 17.31453916062152 12.558580068246208
Sb 14.965225553058767 16.51466289107268 7.849094055006064
Sb 16.832914512797515 14.668206588090287 11.392751221953588
Sb 11.375868238875997 11.276689237300735 6.778531189988463
Sb 19.599075136942478 14.515725550364419 12.205879862569871
Sb 13.856863625463337 13.003986040395723 6.788412824548053
Sb 13.322239010326363 14.121429301718855 9.41464558983388
Sb 17.56419250556055 16.224262242023798 9.005577771707188
Sb 16.70925183165408 14.758251840549061 6.664476023989027
