53
Energy = -204.81622797 eV
Sb 13.13961654428218 9.580482343339757 7.134832979955501
Sb 11.803984623173555 12.969750069788478 6.617942253507782
Sb 12.524466501543237 15.752887234230185 6.778657701218984
Sb 10.414658045433088 8.522571676895726 7.203778861530433
Sb 14.565479538838497 13.766650679793754 6.334257033111901
Sb 12.660756211570654 7.174078117913945 8.532595684240935
Sb 9.307494929433183 14.614037223014407 10.403352950970987
Sb 16.58751749844367 10.091606751549696 9.06053224521274
Sb 16.521857283985874 16.26270076322772 9.277242343063648
Sb 12.15395732129483 11.593862121697176 9.172777859352207
Sb 9.417491513424524 10.769761322660887 8.766128409483345
Sb 17.361447662048135 12.964212844200866 8.914168203272164
Sb 14.03392181928265 14.740168171978375 9.008087191328805
Sb 12.958882528149953 17.47192774952183 11.064725158598234
Sb 10.952530972432166 8.519281491684637 11.050094335408458
Sb 14.433198326580424 7.458133029099644 10.978067246355657
Sb 17.397271788704735 10.432090012287167 11.855149687187414
Sb 8.97993417592142 16.804918351694855 12.292930172009708
Sb 7.326898402309562 14.486155060774063 12.491275115348923
Sb 16.92762241076819 15.337715046715562 11.990753813493106
Sb 15.099283713294318 11.949341081416417 10.640914195484713
Sb 15.499372011284114 18.703596026791576 10.64997902958576
Sb 10.806630182138509 12.680367151344294 11.978732688562179
Sb 18.78465062282955 13.057690500271082 11.385038926924462
Sb 8.91266581242808 10.532761383363226 11.722101409728117
Sb 13.913834475559838 15.293952836586982 12.758089889558498
Sb 13.296780216912392 9.72040544834641 12.336869338060023
Sb 11.827953463097735 19.01510012092007 13.214569630442938
Sb 17.157343174145147 18.13186455384211 12.943026783819903
Sb 8.962292679032766 13.751699965897748 14.862247492538367
Sb 15.955131115932923 9.06722304608265 14.202272096939057
Sb 11.08068837074984 11.665034723703927 15.329242303509025
Sb 14.219654975370267 12.521534571410086 14.577245343779875
Sb 12.536844743386887 7.056496387599512 13.11288226658001
Sb 9.553792908642814 9.224877449899715 14.99359698880179
Sb 17.040070167118277 13.243220600070881 14.998044312763664
Sb 15.335168739103052 16.831924262046417 14.784868365289991
Sb 7.5773077598620775 11.227837602314812 15.719632742715136
Sb 13.783144832398353 19.170058330142545 15.360905259880187
Sb 11.22256412962583 16.28969145753959 14.220323676188807
Sb 17.9540127458978 10.547457346096685 15.737878533960549
Sb 14.037373643831028 10.10993768402651 16.252275977306
Sb 11.214773777883657 18.25133450244614 16.394859055288936
Sb 10.232721571611346 14.460638584169525 17.902562471565556
Sb 13.434550251194448 13.8809903029316 17.180442172532544
Sb 9.65337490772053 10.545183695086983 17.61177040164597
Sb 16.411898312057357 13.613493933062463 17.794345625108313
Sb 13.672350573883548 16.431630189801744 18.614267258274527
Sb 10.904844352015559 17.004046215959473 19.007507730589534
Sb 16.239541467070023 10.740037592240162 18.08609886138846
Sb 13.305771114334753 11.940263397362838 19.322860522841413
Sb 11.03400262710921 13.353290855106208 20.434992953250596
Sb 13.685057035093076 14.488462710286147 20.756641020680576
