50
Energy = -172.82314715 eV
Sb 14.114716202847493 14.70077694107772 8.731152909308621
Sb 14.964649100084559 12.255242602132684 7.431266679770865
Sb 15.817868049614308 16.183030237934705 10.825882128085217
Sb 16.827506955439954 13.316372247107276 9.496832107936589
Sb 17.899162795670907 14.424129503720653 12.05496971395381
Sb 12.025791784100083 12.8738394827016 7.379194618664378
Sb 13.174233137929768 9.99295485909349 8.17813819998
Sb 12.61730911357885 12.063277539903847 10.220989511097212
Sb 15.869575616753243 10.372109184030737 9.516501985814436
Sb 13.22797568937912 17.261237151785906 9.855589944735897
Sb 16.653280778554365 8.54689296854785 11.769990845478134
Sb 16.0468987641787 15.921626534949374 13.889920500625504
Sb 17.530671069920427 11.42658077565362 11.856075819977974
Sb 16.74985222907225 12.992391927933932 14.342363086376343
Sb 10.243902000922466 10.845948086689168 8.757514370573647
Sb 9.12389722156154 13.554116524625773 8.153696462738596
Sb 11.187943641338574 15.262960268123148 9.129304504522286
Sb 14.351453828324678 10.726043706430739 12.25972073719721
Sb 14.836515172724246 13.533777630650155 11.654008474160488
Sb 11.216824806257002 8.17306624104473 9.487566695580956
Sb 13.97067628123834 8.178737806244435 10.522124135944683
Sb 10.888223019487823 16.856541835138955 11.61698169346596
Sb 10.87555908322966 13.754753329792187 11.849189446826744
Sb 14.266555509205055 7.94977147027005 13.583806238500705
Sb 13.64189644256212 17.43171962713775 12.763874029978336
Sb 13.08469645395522 14.63317442090801 13.701608144468617
Sb 9.086055260151408 9.434651737319163 11.174691781319774
Sb 16.430221603138932 9.989215273728965 14.376532962848685
Sb 8.389459148910904 15.36197489654232 10.56574132394875
Sb 11.490882414325828 7.864371620906336 12.393521573290835
Sb 13.500978823097054 11.87188576984716 14.792404540491365
Sb 11.230056281982042 17.001116209949497 14.660239742827086
Sb 8.355651140914357 12.312577264109807 10.668043525376564
Sb 14.013575301673075 17.154949117796715 15.709898660434382
Sb 11.324625435632884 10.787320826757133 12.62611907683236
Sb 8.579346998611253 16.653725094082347 13.346486166984477
Sb 14.994844138987602 14.457862332593468 16.351975961702507
Sb 7.94531386954353 13.825418986694316 13.262402835131207
Sb 15.960754292083303 11.669736373680884 16.857985464082567
Sb 10.821930591113025 13.046662447033038 14.7061657007708
Sb 14.025831076014258 9.45953324040809 16.312163699980477
Sb 7.333274532476081 10.954792824191696 13.057917770828503
Sb 9.433061345619903 9.321992156213229 14.31673669186821
Sb 11.816987683232197 7.833870033489559 15.288412792719141
Sb 12.1113463401364 15.16254802894362 16.916800149854375
Sb 9.120162420508628 15.10414813504335 15.85975413628421
Sb 13.178861773489873 12.375327451943168 17.690571350592787
Sb 8.36710405250546 11.902792524157096 15.670039014621118
Sb 11.046748625008268 10.298516268180698 16.703500199957176
Sb 10.278478595418743 12.967124975263712 17.706818383992974
