54
Energy = -211.40167786 eV
Sb 13.964246232583955 18.67846546051774 10.260304903335088
Sb 17.958338775140636 15.47447423794405 10.57576650164552
Sb 12.567221022018936 16.900396421857028 8.378640633977785
Sb 16.45996978233029 17.805265148516803 11.786657929260015
Sb 17.940708357519522 19.609750019335312 9.80771017819512
Sb 16.373350534858897 13.490269893309543 11.86887051892773
Sb 14.273988228293861 12.915260260360922 9.956246469039877
Sb 11.99657146810755 19.593197021665503 12.13550743116442
Sb 15.521083511214654 21.163585672920455 9.830186721611787
Sb 13.10938207683483 15.410445019822882 10.832749876577504
Sb 19.27485410883037 15.750993249072351 13.158738764444163
Sb 10.431070267065827 15.793770875515397 9.93042867489489
Sb 13.149408211060845 11.086017047203484 11.929440241205596
Sb 9.78538561134886 17.767590717227392 11.94252486824235
Sb 17.67418787056437 10.961496294961558 11.472647448325306
Sb 21.96739166293077 15.750400887675939 14.418941905627507
Sb 18.653742743538647 20.852714454647135 12.286592982062297
Sb 18.31847580753908 18.48883584174414 14.072828919458098
Sb 16.41672271734257 9.858844342537857 13.93209897480846
Sb 18.064163624357878 13.838800941920761 15.026269619092096
Sb 10.707807240104433 12.577910642664122 12.370608081208578
Sb 20.990639414061775 18.22542139761237 15.500954945597094
Sb 13.536489813058559 18.75232701363556 14.449472413448452
Sb 14.701406267619777 16.22123898339565 13.747645239188275
Sb 14.484576002865102 11.990009537068326 14.340185110076357
Sb 15.789241711542733 20.953866896574905 12.688192796220603
Sb 18.952382334612423 11.23249308048591 14.075818535601636
Sb 16.870208557015165 12.561191949197596 18.053765053188137
Sb 10.250225461848276 11.980610715567405 15.14244854122429
Sb 17.54817169310646 9.951754510993114 17.20824355034594
Sb 12.560231173596518 10.374616594600448 15.806289884347542
Sb 20.831917433636697 13.639804352624672 16.078876631842608
Sb 11.855332311706992 14.310179655442738 14.374326465841184
Sb 13.389261169767003 12.226559381037154 17.884629358729327
Sb 11.204681483574497 18.010785606276315 16.048043078582673
Sb 9.684641555117203 16.187079598119755 14.386131887787055
Sb 16.00699000001328 19.304706058217576 17.016748404405515
Sb 16.142995630615676 16.472517652393496 16.264569334264912
Sb 13.542579553985732 18.95536623430719 18.631930399011637
Sb 19.178975575918457 16.930543165639243 17.280021902075024
Sb 13.013093244946576 16.297163601635187 17.5778419014244
Sb 13.852552853388282 10.09373257892443 19.74721103941561
Sb 11.195753260909566 12.770065912554642 19.77052696571416
Sb 16.748144903515776 10.361448934469205 19.943398356310468
Sb 19.06251335144561 13.172370946396999 19.904029894892425
Sb 20.870967519164594 15.036451279611017 18.628496560501446
Sb 11.222938383441205 15.708517087351405 19.812039835059856
Sb 18.182313645516842 18.980607556955693 19.03028009401247
Sb 13.188138414819402 12.057429087665701 21.786466753154713
Sb 14.693226146029312 18.263780521461154 21.185901902961966
Sb 14.865886244494254 14.03761162694523 20.510250391048856
Sb 13.16638499661527 15.90945423072099 21.924716050801063
Sb 16.577326160051104 16.68976502931023 19.719487192641022
Sb 17.45524408104209 14.795544974017062 21.730798089806633
