52
Energy = -202.36611799 eV
Sb 19.210973543922968 13.779686209167908 10.725506273262617
Sb 18.12571345810015 12.139438480764579 13.84818246357202
Sb 17.151966374448662 11.682509352941883 9.920013748603498
Sb 17.723086997752233 16.05959873329726 11.565317156816427
Sb 15.370784133576736 16.588806121581538 14.332012870547056
Sb 18.147394163946853 15.543387288170726 8.74528561674684
Sb 17.6661802099152 9.84863158761266 12.162620665998036
Sb 16.4931454001751 6.121743953033994 15.955989268827945
Sb 17.161151192517824 10.679548370042994 16.242908748232125
Sb 15.9651048679767 19.36973650923306 13.77972548039689
Sb 16.38734288512109 13.110725618669063 17.663003362249313
Sb 15.926705473849498 18.37877909273161 16.521185878697107
Sb 14.947881353725759 15.133797745488218 11.320286812042024
Sb 14.061994028522282 4.6160513478216805 16.313730695394266
Sb 15.408051871062803 7.7059808871334905 13.615411304702866
Sb 14.396644143932072 16.97231878682676 7.796904518115582
Sb 15.621560637793001 11.954219798397848 12.367119617448868
Sb 15.447450383387686 14.358195118991778 8.554427648402513
Sb 13.814512298668182 11.846329518799228 18.073280717120337
Sb 14.49908536916186 10.111726691606037 8.920196427240777
Sb 14.379139401511756 17.889512793760183 10.546352917644597
Sb 14.704336744121372 6.79409363192091 18.074809242360505
Sb 13.129293907064264 20.08902462468165 14.00146992646137
Sb 14.593618947891118 10.130463204717206 14.984468055467241
Sb 12.461137364707179 17.249825527691343 13.829081286149624
Sb 12.84156054366976 6.7026690365259585 14.654216536659339
Sb 12.02456608322704 11.507859308892701 12.704799890261267
Sb 13.56131088948389 15.727204587171702 17.765262833973132
Sb 13.38122496691413 19.725387323165112 16.860477033444003
Sb 9.795903146548667 18.451812754485456 12.699477623229848
Sb 14.258866610706937 13.673738163565679 15.822615513753103
Sb 12.819916357837991 8.660910015644465 16.766529229571194
Sb 12.641356634473675 12.278735672415516 9.027342297414645
Sb 11.099500379899256 14.908082715877864 10.548092940389363
Sb 11.922163617496166 13.792515424227139 19.168239247873387
Sb 10.152809071482642 12.70080067609053 17.154353614179914
Sb 11.890238026125637 17.3199937656192 9.176625786598239
Sb 13.454748504775647 9.256879983060326 11.42221727162585
Sb 10.378530111935035 9.97964784023339 14.547582425319485
Sb 10.829079607091442 14.12038611369099 14.704959397103092
Sb 8.737341150950146 16.631487253000923 10.738997377485717
Sb 11.555234200679973 17.43386826525287 16.57562086899919
Sb 10.279722179285663 7.316349871746134 13.39779928778766
Sb 7.885887524885035 17.635663562903225 14.529603559281801
Sb 11.49086653218632 12.842095927463001 6.463792513643936
Sb 8.650548600485573 15.098074037230253 16.38579891081135
Sb 9.544332317948493 14.084604420889558 8.201476622660657
Sb 9.977502499538156 11.236174747045023 8.321694654641366
Sb 9.476889164657138 10.539032024217633 11.73119533261139
Sb 10.813402153029728 8.177772323696372 10.694406226907223
Sb 6.892561184118733 15.61248244790946 12.744005356892629
Sb 8.079018336781672 13.349924265802624 14.133039324237174
