55
Energy = -212.06779395 eV
Sb 19.190451087158966 16.80826856844034 10.164880624929
Sb 14.61168048183652 12.520353372538683 9.396522441605457
Sb 16.750118632627956 17.577155234748016 11.70428384318869
Sb 18.41922114245215 12.172627530049525 11.184623167890553
Sb 11.147246935381315 13.895726758419514 12.195751714858334
Sb 13.754988185071506 14.559975674897508 11.220113189098305
Sb 17.71094932245423 21.721910295726556 12.021465558004
Sb 20.888606925087323 18.34285769382481 11.872916124136124
Sb 15.85414895197169 20.244423783589188 10.39957808688669
Sb 18.56056050693883 9.543854796667954 12.339178097383796
Sb 14.438441468245937 9.982218502755046 10.785242624606722
Sb 11.306846892501422 16.355023911994902 13.750702204860731
Sb 13.520915991474089 20.192597644275853 11.976399489809568
Sb 18.51736784656049 19.21367984759968 13.31283663638944
Sb 17.61550827818319 15.494901677159499 13.732787560493158
Sb 15.638499280281115 12.34735413417741 12.122617663193571
Sb 12.27783890543249 9.420265725010458 12.386647353307989
Sb 11.605381764328918 11.639551602638214 13.986737464756251
Sb 17.49494868201068 10.886014116924946 14.712348176120281
Sb 20.30084362350997 15.622657826186375 12.570452050541647
Sb 20.017938379766907 11.693807249068062 13.573905192699431
Sb 16.405566251589107 21.658774949457158 14.578321438163222
Sb 14.046542701276802 22.689806824387347 13.28841267359472
Sb 12.194447668350787 16.294052284285996 16.54484086517608
Sb 14.006103195603995 12.6977103931759 15.280909323729377
Sb 15.102044591660757 18.950215116302694 14.23932182096703
Sb 14.085668340891765 15.957668868804292 14.370744152547166
Sb 16.856305694507576 17.083770138902498 15.983595449470101
Sb 12.038660455273341 22.638724039804995 15.455049323141134
Sb 18.281042223674035 8.724169909358537 16.456284903870724
Sb 11.780077273573964 13.43259605136601 16.973743930768894
Sb 15.94823953209194 8.84918480580333 18.21990798820523
Sb 14.222193307665933 22.19970052495847 17.3334905858038
Sb 20.348272718610616 15.63236357323666 16.807526642266506
Sb 13.768189647789134 10.412119758855187 17.18330010501375
Sb 9.933293445806848 21.649384323850818 17.862584537984716
Sb 11.198708865331623 19.862983398817544 15.96064169002463
Sb 18.99145391752799 18.083874802161176 17.63661084640204
Sb 13.90490967395161 19.33384203681869 16.943824573192522
Sb 15.006908913877913 16.28893721767682 19.04701815060655
Sb 18.213784214109634 13.656901808934341 16.90564268483342
Sb 20.66433248608272 12.110154173672594 17.230232674229136
Sb 17.55073072426199 9.919646833561476 20.38056306325359
Sb 19.878735364463406 9.764803710551606 18.66172048080082
Sb 21.292979792700972 14.192306318521911 19.170636037013505
Sb 12.905732857995552 12.133157866515925 19.337942771196712
Sb 17.39632555441028 17.572212808709704 20.048870070095063
Sb 14.71327516483232 13.91054432912734 20.749593527939457
Sb 13.341159161573604 21.268686498884023 19.937071830870668
Sb 10.312988956645524 20.800716893934883 20.436743489272008
Sb 12.008197533761823 18.68329378054464 19.462043481636073
Sb 18.447077059193223 14.517271081921237 19.67010483943502
Sb 17.199095844579432 12.596346043345473 21.403579541813045
Sb 13.957509415636558 17.690062826560954 21.430360189941815
Sb 15.771202915134262 19.90304880820882 20.993035799693885
