50
Energy = -194.61868745 eV
Sb 18.43726998734339 13.488183316173957 17.291902250625295
Sb 19.719326667325717 13.081203960224828 13.582350180663491
Sb 16.819795125527918 8.951179053762425 10.385821895587192
Sb 19.059980489388526 12.745096504654047 10.740387411083246
Sb 18.10557221540353 10.730779897895829 14.003361250480749
Sb 17.67274589974168 15.151329740117323 13.694883125758164
Sb 14.16626689538708 9.302025726146644 9.375350815512787
Sb 16.362525122881628 14.768989432967258 18.85153991139568
Sb 18.198390461378295 15.492906706916843 10.828433126152637
Sb 17.78473748698593 16.256980816440706 16.780249696736906
Sb 15.277027062589696 11.814062317279845 8.409965497371893
Sb 16.113247513333413 7.609290719252886 12.826142447452058
Sb 16.395186814244337 11.829740778191423 16.070179793494567
Sb 16.556802433151123 11.549199179716137 11.625245071709749
Sb 16.014460566999006 19.623493300031587 10.961343720376984
Sb 16.29541185148067 18.28465631511332 13.50630652848871
Sb 15.93142988784194 15.190119557165037 9.102707443120375
Sb 14.936016862180681 15.723967208606838 16.49376587918282
Sb 13.060674740293276 10.60679017048372 11.722118328222157
Sb 14.048418031859864 5.644952204573235 12.227422635027246
Sb 14.214535517768535 9.376819850678688 14.066010061782704
Sb 13.756264742398189 16.940987047462944 13.23724164666572
Sb 12.819899796869684 14.244824690721229 19.81345666991105
Sb 14.898053163158437 17.938032074875167 8.925937423366316
Sb 15.207929876044865 13.77173777910555 14.345306862513414
Sb 13.908266777850088 19.819892062214773 12.916470460013278
Sb 12.655576323581046 12.507190060484614 7.8249860453085525
Sb 12.62835952010571 12.810423266623834 17.264286384362627
Sb 12.516781579899282 15.317752500406547 7.4063993703730535
Sb 12.781098191019687 6.885857042971709 14.569549800059601
Sb 11.22619565577545 13.288682881134365 10.385799413443943
Sb 11.324345550181677 6.537586071437318 12.154446037799614
Sb 9.987704271219418 14.909116050987086 19.889740327574696
Sb 13.473220591408724 15.958682986844517 10.411788169122689
Sb 9.728480605771665 17.417448598444388 14.854650371585533
Sb 10.408546837460621 8.927449349480563 16.38890648032713
Sb 11.84518368949829 16.64768287446035 18.56100582220308
Sb 10.885985137894137 14.961553703019149 13.520510484297542
Sb 10.614665575826393 11.279284661856373 14.709946141976213
Sb 9.88364245611053 15.023833449404101 8.496881621470804
Sb 10.87179177012477 10.850836937515963 18.50338973616158
Sb 10.78152190849939 9.072801144833196 10.92574390258514
Sb 10.393205824857395 14.65450474397867 17.01640019323768
Sb 8.587039965344932 11.112341944170128 16.763079441758123
Sb 8.581752632273028 12.200992965290288 10.772333729678111
Sb 8.820460810354207 10.128277605686343 12.780641564507787
Sb 8.575042587359201 18.69819384325751 12.53396376830867
Sb 7.0184686319396725 16.99501965964209 14.101062947882495
Sb 10.07855500076082 16.486084603364823 11.077704694437928
Sb 8.239869893257957 14.636862144147281 12.402474187848934
