55
Energy = -213.46379134 eV
Sb 16.593332336482632 20.993304241868064 8.989191496583736
Sb 17.11579142483431 23.714546433530383 9.813014767884761
Sb 13.361554101004078 15.547140316683196 10.838945891853555
Sb 13.747372028733512 18.4244850961595 10.990593533442972
Sb 19.615926389339876 22.87372339333347 11.032636162577303
Sb 19.069946794904343 20.11887606983631 10.294696086082238
Sb 15.80905058463833 14.12377466757065 11.783372277478833
Sb 13.13916933884564 10.566586088362588 14.201359537199085
Sb 12.24285359483514 20.069834038496754 12.733316123747304
Sb 12.208490720705523 14.317961401912827 13.217928816435288
Sb 14.944413723442981 8.374094781491197 14.767388270296685
Sb 16.13903318736108 10.316764529601437 12.988915257192923
Sb 18.24768590524157 15.817751026457236 11.784542584927525
Sb 15.006480626176668 22.188696334705295 11.036600613354496
Sb 20.235367758180328 13.670906786583169 12.425554304170499
Sb 16.13903474248849 18.356063663900102 12.580062302994143
Sb 15.24764847924674 17.26153172362801 15.095946078285522
Sb 10.522921109831438 16.35957954311364 14.326132100384742
Sb 18.845502518768637 20.96466788243433 13.013421086202717
Sb 18.104037050690767 13.070125920541777 14.221105245288262
Sb 15.529636458934291 11.019660239403269 15.72400822858359
Sb 12.50173747390371 18.35713546569793 14.926122447975962
Sb 14.840272524891901 14.455566663681932 14.492781852258204
Sb 21.163748597479582 15.57493294418828 14.582619320951073
Sb 11.204625078439264 10.64511256222781 16.513359128557205
Sb 19.09842314053093 19.028766262117156 16.030556545248942
Sb 15.995809866675122 21.11407126497472 13.485110507613022
Sb 21.8572398147504 18.33472418997651 15.715636531591015
Sb 18.30871835438066 16.025024827246238 14.686566652747562
Sb 17.301216616074925 22.428318113873924 17.77854593762765
Sb 13.276489413955568 11.6674676693922 18.148108467569216
Sb 19.785891881966016 21.208597252174993 17.991062933908434
Sb 16.690136666683973 15.49776000488883 17.84384770034217
Sb 11.537885074638877 8.016516631947576 17.63542084088374
Sb 10.170914590180896 15.06029933748109 16.886081513199134
Sb 15.841473147967703 20.116855653301105 16.968017610539288
Sb 21.625934468540027 13.592028224030251 16.6356158673989
Sb 11.375900414942809 19.553109180901266 17.296088422574954
Sb 14.253889445279817 7.695475936497039 18.553994971369328
Sb 22.005965004870802 17.818293038907804 18.55020583610395
Sb 19.27980814031424 11.929220679628342 16.651554472175867
Sb 13.59724233002562 20.83343882921529 18.623505944543584
Sb 12.943865220457718 14.474892193327715 17.43754433672622
Sb 19.17870451557647 18.50233739974148 18.880030936775555
Sb 10.493711640776109 17.249452751406874 18.783496133011152
Sb 17.452275484362193 12.809823232617086 18.732244219359266
Sb 21.414904690891962 15.01749255344778 19.08235924427811
Sb 14.609122158032005 9.38583425106115 20.862184289002315
Sb 15.778849469565774 19.246197683574533 19.755483699026918
Sb 10.621510009397698 8.716598219346212 20.258148435484777
Sb 18.655682659171518 15.119902566402244 19.956222345713794
Sb 12.913214972284509 7.062770739050575 21.068110824250827
Sb 12.514117123547239 15.56941506019882 20.032163989032185
Sb 12.264719892608163 11.049493228987739 20.78970443334644
Sb 15.306307153358704 16.41855712008276 20.234328755056378
