55
Energy = -214.38730488 eV
Sb 22.421459982132745 15.415664756009681 10.727660723026043
Sb 19.701926715409385 16.391766489631774 10.215079973951807
Sb 16.93443515228048 18.622251201901708 11.160741765270439
Sb 19.817734905269308 13.666815459051227 9.208880010157516
Sb 21.528857445468976 12.75039706529103 11.365633398600984
Sb 17.156512719058888 12.64093736518787 9.616155576911195
Sb 17.97429744289679 16.24599569620591 12.556617251465445
Sb 15.914841607154997 14.399934146073353 11.564777027360455
Sb 14.364619265916756 19.2322386770615 12.37939380647877
Sb 23.337510893008336 16.358842647922405 13.286231535335805
Sb 12.478870757247908 13.329668596533859 12.753954285248113
Sb 10.290331754313351 11.768017163085489 13.839833321486442
Sb 18.215088235488313 20.859738853482447 12.495536625442018
Sb 19.83811703547704 13.739977530465394 13.442507124595664
Sb 11.486393284880416 16.039334614481845 12.755283115900301
Sb 21.376281994737937 18.46542596421008 13.02097564301606
Sb 16.56826559440781 11.675894357998809 12.293039792847456
Sb 21.630538011761274 19.38947609733601 15.735025593266315
Sb 15.71690202682259 21.11379536996948 14.125708537787355
Sb 13.901719939390837 13.111742979514018 15.283991861770696
Sb 19.28720396385939 20.989965819252333 15.200635402165306
Sb 12.006886596443259 11.066616827254721 16.09375656248235
Sb 9.493228442136916 16.211988885955407 14.872987664163999
Sb 9.022871640543043 13.495774532657569 15.73561693699239
Sb 18.979067180509745 11.008809129236115 13.834872202304645
Sb 14.365373734014394 10.338639253059947 14.592388314641632
Sb 14.024382650826496 16.834118981372512 13.943188573344596
Sb 21.792529826681253 14.883731310649022 15.273995025790184
Sb 11.259906755313517 15.001114116175815 16.79256234452351
Sb 16.983117537150388 19.524699491964753 16.240148193206693
Sb 15.856784903644439 9.658763485308135 16.99427122161712
Sb 10.84314673700551 18.932022124113697 16.634701364841366
Sb 18.400693355337193 11.05749268957025 16.661058345820507
Sb 12.876637373670553 20.9050665838895 15.771416783617475
Sb 14.039292618247195 13.758202743143688 18.918816145442847
Sb 14.265484043141214 10.826419491579426 19.13006968734531
Sb 19.90718420577427 17.13974082890146 15.27926316184294
Sb 17.132412457100237 13.56912192307722 17.23556050063141
Sb 16.69988207035198 16.947713773118988 18.21366061529139
Sb 16.708707564182514 21.773393889458895 18.081318086140286
Sb 13.595556197885804 18.142330854897022 16.570217255696257
Sb 9.81808379703031 15.526528559189988 19.229962865959816
Sb 13.841072362539654 22.3988963674557 18.051236030574458
Sb 9.920486824356761 18.46808067959868 19.3610751684578
Sb 19.113609000087777 15.554667920693074 17.959999089640842
Sb 11.91425533109587 14.419464702764277 20.916995571951865
Sb 18.05198818459522 13.010134787230607 19.91417579163554
Sb 16.70245342232435 10.51566217789161 20.553077186780676
Sb 15.666326815561316 13.757790549818008 21.3305281532578
Sb 13.825043626370428 19.856723081696035 19.40596431551043
Sb 17.6471616028241 18.10766160209887 20.643989466115528
Sb 13.452778744271113 16.792792267459568 20.350757922414655
Sb 16.229732145051717 20.643161491043198 20.741680403799595
Sb 11.895895385428844 18.99109052800124 21.407527621666087
Sb 15.676555786456653 16.62420116394744 22.185996699353193
