5
Energy = -18.36575935 eV
Sb 12.231061780485916 10.096105534555283 11.390672872033582
Sb 9.752272767616015 8.726090943661587 11.798736136942049
Sb 8.776543951205099 10.723180503684747 9.9936033641213
Sb 10.80653063067417 12.577068982386905 10.92294217640922
Sb 11.382601656531644 10.873990154366991 8.727859466753754
