54
Energy = -210.39112206 eV
Sb 12.363563394025512 14.714551138964033 10.94204243984521
Sb 16.323755064160494 13.954256079605985 11.376646005581307
Sb 14.77195289125441 16.313389849322096 10.766382726701458
Sb 19.53113294988072 16.876381656069057 10.747923685021881
Sb 17.359911248789444 18.622996098431923 11.541227871006662
Sb 19.04962528499878 14.505563738885053 12.270680892122101
Sb 12.85342773636028 12.466883748755333 12.724927391483028
Sb 11.621501678538975 16.323838474502477 13.237742021830197
Sb 14.848850153091941 20.606492811954205 12.875507635933602
Sb 15.448844399739906 12.974466327006004 13.931743644764595
Sb 17.416280550368732 21.87479897092364 13.535345996066393
Sb 14.510190677023408 15.139178982619214 15.708945479849683
Sb 13.229378269488345 21.890243621713292 14.891536237877592
Sb 21.138482924303098 18.41665895433377 12.622640934459158
Sb 15.256899767349553 17.615395216678767 13.333775793014194
Sb 18.66725846159936 19.30218983990659 13.983923966578141
Sb 12.510404897430401 19.17124826666919 15.562288665273782
Sb 9.027567987251835 15.160746996723626 13.591572758848415
Sb 11.33762313714517 13.898958678428762 14.811500046041077
Sb 19.453039624239455 13.28841274665058 15.871053335748645
Sb 9.542255148454498 19.25105559471856 15.507700868910707
Sb 21.962950053604928 14.189265636735286 14.614665639384091
Sb 21.018786330044758 16.859197947026747 15.064115528835046
Sb 18.32683764015406 20.083589251424723 17.655388441577255
Sb 16.658299990156042 15.783342548655382 17.66509163020215
Sb 8.873092847282537 16.547668360807297 16.157015165397333
Sb 17.578607376109304 22.541198808434277 16.33456742177915
Sb 18.33419947232176 15.786038294517102 14.753582022581082
Sb 14.83789194115186 22.97602445295471 17.069405598057276
Sb 16.42758683985361 12.723914642113979 17.59982852270692
Sb 13.522842438280081 12.818197222688923 17.24905801939865
Sb 19.7493033357062 14.304759962114444 18.59472076352452
Sb 23.443799358083574 14.278755753223386 17.29981289386829
Sb 15.971676625640114 18.606178534862615 16.86928122929262
Sb 11.660857460847874 16.404464265741552 17.16824961300659
Sb 21.8918103905876 12.429399049998617 18.891260376868978
Sb 11.016772461990813 19.17412206671341 18.02248746633228
Sb 22.566090248770323 16.830267061330222 18.307405804794577
Sb 18.14769025383949 12.228009286802745 19.857075472881096
Sb 19.487682686963222 17.843405950082712 20.387473473952916
Sb 17.54334027284 21.666839893440333 19.912744141832565
Sb 25.30380166688696 15.937979098360001 18.837398490921554
Sb 14.671007494078006 21.654923026786904 19.662323082677773
Sb 18.612323181624134 20.018232117715108 22.067080298482683
Sb 12.345196217338872 14.490826201602461 19.27871698885388
Sb 15.111559421353899 15.15997449465334 20.071564662905644
Sb 17.572456514884056 14.023106989017512 21.977004067299973
Sb 14.169937063931252 18.900178898615387 19.045770689592533
Sb 22.670718240158134 13.347254655808358 21.473748571346622
Sb 23.323483178286644 16.083989663119404 20.96975846355193
Sb 17.50847996658928 17.33288972028601 22.408601438237834
Sb 20.302682367668016 14.315834928942452 22.97548721375669
Sb 14.740663886461357 17.592262335154086 21.520555529405094
Sb 20.814929980049705 17.12950453644121 22.832956328769193
