51
Energy = -185.90010978 eV
Sb 16.563409183136486 7.710946238097554 14.523609884466207
Sb 16.560898018736456 8.75457833060195 11.639393820017851
Sb 15.038901084231771 10.249018002647663 8.965690004190458
Sb 13.093616063301257 8.22026445477577 10.843534510391724
Sb 14.072717601171771 6.484702902322526 13.265652258915924
Sb 11.923076138574434 9.986886257196442 8.318429693579143
Sb 9.897348059687506 8.885126738257547 10.286764048606157
Sb 10.882448358407496 8.216127601064152 13.307216307628094
Sb 14.133092128964561 11.649056369391921 6.2494249785329155
Sb 8.33099157172541 10.081131304896289 13.475103295062222
Sb 16.924358547266543 12.73238269409409 8.281411504437775
Sb 9.535201676588827 12.036412419977163 9.06378992355352
Sb 15.421217321081386 9.87306330671745 16.50890993159381
Sb 17.36406452486752 10.755743939661922 14.26100102092657
Sb 17.670738285929414 11.60038889927451 10.879414569647363
Sb 15.081020006573487 12.50016145869627 12.056050930876994
Sb 12.616779186250682 7.965383106661124 15.987755901416941
Sb 7.128592283229551 10.522003420522015 10.61447547722715
Sb 14.04124992199072 9.460150986651527 13.598006818665878
Sb 11.509486978516478 11.22254447350501 11.194642874247595
Sb 9.744350336076241 9.16841347741379 16.36318666034993
Sb 11.645061263662289 13.18810481049263 6.875037499327306
Sb 11.189045398001847 11.185548433997779 14.73249454321549
Sb 14.715126927499051 14.403530807843158 6.775164178474458
Sb 13.528095540060772 12.9203477367653 9.111925935161063
Sb 8.75510741902216 12.919900169270784 12.280090372691298
Sb 12.024954063515755 10.388916751225024 17.715125017800432
Sb 14.216738367984501 12.681577559003635 15.44773469283005
Sb 13.119077891108585 16.17181055787908 9.048859585204362
Sb 17.554924634343728 13.861697199333461 12.939799760138369
Sb 12.033808438595948 14.4460990255501 11.586979052899872
Sb 16.97846454526998 12.863351283043194 16.364665834704326
Sb 10.784470922936631 14.625175495539777 14.378713102657564
Sb 7.236169885576238 14.821504729917956 14.460069954333951
Sb 8.2611099284678 12.421178924554962 15.72192060056064
Sb 14.738876847373477 12.59297397026241 18.310119415731215
Sb 10.096565563812355 15.158213756310221 9.27094211792127
Sb 16.202246197446254 14.938284514110347 10.215761505733296
Sb 11.548442756529148 13.493945235468427 17.363697737988865
Sb 14.278462902452874 15.427726876418062 13.59352393205522
Sb 8.790615069100587 16.438596634330576 12.031382290933994
Sb 14.395768757632784 15.406433255991285 17.1131919472603
Sb 10.840293999290406 17.832674128894592 10.486232377224981
Sb 16.978206995350153 17.049155834344184 12.341958633591693
Sb 16.89327762780912 16.010097145810914 15.364689847566165
Sb 8.753980903085536 17.30419206784121 14.999909929173183
Sb 11.614375326892937 17.57932456866387 13.54967005210959
Sb 8.861663658975317 15.203783092557748 17.12993819527367
Sb 11.880708780753421 16.788929496277742 16.759246545286935
Sb 14.209165118041666 17.60502272621264 11.468758717184246
Sb 14.3963282711107 17.910104170105566 15.10605786212901
