50
Energy = -189.82250616 eV
Sb 10.052720108522736 15.329747820088672 18.048836613640663
Sb 8.757260052050862 9.350585379411704 6.170735953617636
Sb 13.111827194187445 16.201436512752828 12.99656150707517
Sb 10.441201882316339 11.660018746822132 7.054871906281094
Sb 8.971618064356823 12.716378064053677 18.613459975695953
Sb 9.970096983329176 14.665293722151265 15.073286606829896
Sb 12.986942355753937 16.137421948467242 10.070481438756998
Sb 12.22809739746722 9.854924960989912 12.372920765236142
Sb 14.740057441946103 11.824288518804074 6.819735069690047
Sb 7.873925935004281 12.851158979714356 7.133484238514865
Sb 10.794746938401362 9.914946328642847 9.704249965059446
Sb 17.098199966366753 12.127981726655705 10.944733494874377
Sb 11.656838720604368 14.707345469221798 6.9673977039110175
Sb 6.977859083214583 9.47115639928321 8.466397202054583
Sb 11.444677842393178 8.062129102081194 15.583574011836058
Sb 15.75479902452884 13.25452660425614 15.11331462719775
Sb 8.677604358547214 7.63226167883763 9.926630427286819
Sb 13.448481249496282 13.390313022671434 12.733083060957266
Sb 13.351029836623006 14.631341883739005 15.859497600756042
Sb 10.965910046964336 17.35703712269978 8.100004437749261
Sb 15.802566194680628 14.852417853705887 12.122180174845484
Sb 13.788996248781958 6.7906541093966375 9.63376179725452
Sb 10.09958904198497 16.595998489522696 10.773520074786525
Sb 6.867188913882632 9.9218953986766 12.526243404795016
Sb 7.628000747484694 13.2460510747294 16.06493923287366
Sb 14.086290753200027 7.213903963276038 15.140674715842582
Sb 16.603830668419974 10.093893920212325 13.012742877289204
Sb 11.944880791932501 5.422951938171311 14.461609464511598
Sb 11.746960518985468 5.582067139831664 11.449810684854862
Sb 13.921017242173074 11.646082030371293 9.640577438529602
Sb 8.93292349119313 15.50251615700794 6.526880003503019
Sb 12.624416273394873 14.277601787692593 18.688891199077347
Sb 7.428745600851821 11.861781029460518 10.189783758012682
Sb 15.808046973527178 9.177586547765149 6.462421538634573
Sb 16.140944152406128 9.169092280788067 9.318920102166294
Sb 7.931869438487979 10.496810864458642 15.156367932317242
Sb 8.021282810268834 15.1777070940776 9.429947295303952
Sb 10.036685888578468 7.050330852638974 7.381050304650988
Sb 12.461811136656797 8.550304574541663 7.766653629397243
Sb 11.593880139914862 11.686941964322509 18.001648746953027
Sb 10.300152557037952 7.744956314489294 12.73634859586316
Sb 9.738586969834602 12.172499486574981 11.901062386360259
Sb 15.455847482665428 14.116675421945645 9.275101198728715
Sb 14.49725488075992 8.088221481819032 12.281159583047351
Sb 7.743612007166964 14.14040451121373 12.66896807811417
Sb 17.47832249278407 11.224656048259533 7.585848924877324
Sb 11.65315705112872 12.295461600206803 15.133874852663862
Sb 5.720964786450769 12.170543054237728 13.796112869552378
Sb 14.67297586652461 10.692953977984585 15.057005399619253
Sb 11.553269529842964 13.51815792176042 9.672251538295425
