51
Energy = -184.86251292 eV
Sb 16.1232922264068 15.28747499193113 7.817848518464074
Sb 19.127748715345344 11.77932962368939 10.838393451444249
Sb 16.221713980782013 12.408322683025549 9.265361671686051
Sb 18.169598305880275 14.880109855581068 10.289095147879848
Sb 16.783247401535874 9.773111271354967 10.667448251912617
Sb 13.441187906251692 13.711308183773543 8.513073376135791
Sb 13.456505787418726 16.822774140541465 8.710943363517817
Sb 10.678224082506574 15.65262959335026 8.474194632475935
Sb 16.56090903116226 17.549793543112415 9.856338145510545
Sb 19.51006323768402 10.87416519417118 13.557956605156612
Sb 13.580181868834902 10.563835557143204 9.17115974306547
Sb 15.169888083436398 14.988585486318401 11.397082105867744
Sb 18.83577470875847 13.92027985438277 13.382359477179577
Sb 16.32349521469891 12.3767806436913 12.554622960462847
Sb 10.825425232535524 12.184054032285847 9.188691533519641
Sb 9.634302534339469 17.31138669438114 10.933320246356837
Sb 14.157724120909583 9.53566567216246 12.336432073417262
Sb 16.905491113274323 9.514875446626542 13.886440286482559
Sb 11.858549611009527 15.504709535120668 11.421677526320357
Sb 17.20660218300235 16.588522578544946 12.876199422067206
Sb 13.999180511724354 17.97792198427387 11.607756572331558
Sb 8.55535092037518 14.323012899269077 10.440930963331775
Sb 13.042448811651525 12.349141106432148 11.819897629811058
Sb 17.48109319599483 11.816517243765357 15.805254188300445
Sb 11.265040559792595 9.276482422130883 10.564359908871204
Sb 15.97355580111156 14.649764941328662 14.963351999898524
Sb 10.956357972751356 10.300383913421005 13.417016529129585
Sb 13.068540987235519 14.935435500990751 14.21026109891983
Sb 14.224528898210162 11.772199632142497 14.760268237246585
Sb 8.783686793079017 11.011082217035728 11.21209694201398
Sb 8.243959136116786 15.93460423632001 13.393683872399423
Sb 14.849201903856613 17.48670152979745 14.52769944663431
Sb 14.303021095966995 7.692766630907465 14.924890472669944
Sb 11.396148660033788 17.60380289509738 13.377069422024867
Sb 11.763808442885896 7.502678148075661 13.2274814886035
Sb 10.037473834409003 13.697208507855647 12.812493201296151
Sb 15.27693917494653 13.055764858672392 17.782651886414886
Sb 11.494821182623085 12.614598611118586 16.047439551916845
Sb 15.105961082028568 16.236070071534183 17.44806726123837
Sb 12.438060721420822 17.524064338032662 16.652457034139168
Sb 15.308683635974777 9.95481758145142 17.105465831032415
Sb 9.521878753190657 7.998125120439418 15.043230885404457
Sb 12.144556003308804 9.327309034724856 16.30115728271081
Sb 6.715017736987388 13.139520893977338 12.61363006244065
Sb 10.000821233178826 15.630016879978042 15.701079991181826
Sb 7.8592895065264505 10.548236954778746 14.069807623771181
Sb 12.465808588550136 14.68881865631352 17.89235792217599
Sb 9.37404466005395 10.579747707038589 16.941405293724834
Sb 12.818034793861965 11.464606779411014 18.444360570911247
Sb 9.701878639557656 13.313646307236706 18.391252236129016
Sb 8.060525201905362 13.209037701223613 15.513930024063038
