5
Energy = -16.04870536 eV
Sb 14.488454013451149 10.385687419850356 11.56009071405634
Sb 10.933691340094137 13.909164309012597 11.172164417205831
Sb 8.671182889455421 14.855557000864849 12.720738452697324
Sb 11.18645522176667 14.738752135423793 13.758487261955286
Sb 16.01953717052824 9.091455933574636 13.070059426701263
