5
Energy = -16.05707341 eV
Sb 13.715758689447402 15.640452717258269 13.805846850245057
Sb 12.135249934488877 14.294853108985873 12.024506241104476
Sb 11.102677006834512 15.372679198626196 14.506922105391274
Sb 11.924953875646215 9.353299477646463 11.676718737577048
Sb 13.81881876557246 8.036571497770382 10.683705302973806
