51
Energy = -197.52189762 eV
Sb 15.371042792824614 11.439098395252103 8.854725669956395
Sb 12.223014144445607 11.238444324356678 17.300649868833958
Sb 9.298127021120102 6.730714382487635 13.674655981513258
Sb 12.574725555706586 6.966022157322691 12.782773867573077
Sb 7.590216563703647 13.000385855235361 14.972446777480894
Sb 16.654701296416725 14.427371105643678 18.3153420839131
Sb 18.582085344298996 10.312208580077339 11.310886080013143
Sb 9.717355938634423 10.294175883963499 16.135139243316566
Sb 12.491895681186408 11.088283130684024 14.298346960880169
Sb 8.334117989375141 9.489940271985132 13.318496634063294
Sb 6.289077604838033 12.300495441710774 11.577589286622267
Sb 9.77468592295018 13.39339781694876 6.331147289727338
Sb 17.390080113879538 14.903424232262443 15.555210186552046
Sb 7.7104130668246675 8.748656840132803 17.509757800301227
Sb 14.083231673196297 17.197566750594145 7.583593775336109
Sb 17.81178021342616 12.670805994728436 9.909328128206043
Sb 13.852332865694718 8.62962172440897 14.805351910665214
Sb 15.332282529653558 12.929150224104891 16.24256831985951
Sb 12.627344469498022 12.684848483691983 5.626140655395823
Sb 11.810881265692261 8.433530477604235 16.928284653697546
Sb 14.097517405124998 15.346063872484073 17.304598047477317
Sb 15.66535767456985 8.562146609800633 8.887361540707152
Sb 14.098448398694673 8.879095445545948 6.440530289796188
Sb 12.327865752032006 15.930433110030423 9.49674214866377
Sb 17.742727777051215 11.441790662501226 13.835668545157596
Sb 13.366058103117354 7.154520223613943 9.984501190984558
Sb 13.468398379427715 17.82960093996152 11.378262093497728
Sb 14.670891620159102 14.595308806291074 6.357675210936421
Sb 16.438079569561335 13.585762044319306 12.344870664786264
Sb 6.358191005303603 6.697101905442043 13.599308788560743
Sb 12.216178561335257 10.728377872832077 7.664478025294104
Sb 5.726607912347754 14.526018658761405 13.346312001542472
Sb 9.547581496958035 13.4716901831701 9.246136007012852
Sb 15.983625949794304 9.547789533012473 12.460779839806872
Sb 9.257192494698316 6.743502611320534 10.784527277289925
Sb 14.206828851849867 11.755803903171412 11.882688357823735
Sb 11.661637789869527 17.764472428091384 13.635787668155972
Sb 15.045695627856228 15.000377381145777 9.188237501355893
Sb 9.018802279773643 12.282787028071732 12.553292476759099
Sb 13.795847897804851 15.81844696055773 13.423217543016689
Sb 8.510280284733229 10.745495101887201 9.109318480808982
Sb 6.756226834103497 12.975228740708745 8.78317305024174
Sb 6.793498514042706 8.304342298973495 11.150836472075712
Sb 10.136203844181642 15.501325932763775 12.669942206778028
Sb 15.446643609285815 17.07246309133721 15.405838001982184
Sb 15.636200290887528 11.288649080998916 6.016731934323313
Sb 11.286788258424492 8.874944096306002 11.02636017068664
Sb 7.611958117772533 16.73877381856296 13.238774607259192
Sb 6.110394752329244 9.162037189000337 15.192442815661302
Sb 9.572230708271302 10.535887240957024 6.405457586053575
Sb 9.1344137944684 15.4693867643807 15.361479890794145
