50
Energy = -195.50483361 eV
Sb 15.074625354113673 5.92498049799931 12.060007671418298
Sb 18.395115471434888 10.562910217878349 12.646066747939399
Sb 17.25279936911329 9.732396463435892 10.103326743561587
Sb 17.969913731107106 13.252326811811956 11.635887610253592
Sb 14.85985731462924 8.083360293731765 10.251734950350166
Sb 15.611843160285158 12.097423466327678 10.393476870195771
Sb 15.470722544698939 13.454618223616082 7.809874165244415
Sb 13.28252512177763 11.651088404432615 7.039310932878772
Sb 17.85527731901836 16.814759557136256 14.091082606019386
Sb 14.482799777828859 17.82896315060344 8.760333668550484
Sb 10.89908201726931 13.288461165397857 7.036238124656094
Sb 18.078641498247354 13.126677918852613 15.881422531015508
Sb 12.213111880081357 16.36291061780698 7.604389754107576
Sb 14.64325636821882 8.28140567595265 13.932004674881343
Sb 16.626235217111986 10.1557116421259 14.92775428227063
Sb 12.204076854781036 5.651927648899376 11.89335000229782
Sb 12.857757255441012 9.725866237952973 11.817753174021506
Sb 12.600301972243422 18.888364669208407 10.699953842754523
Sb 16.438576693007377 14.35775188869088 13.847290934084189
Sb 15.75682065590232 18.70433736727667 13.4882046343185
Sb 11.39690334291478 7.8162208169054805 10.044887036127971
Sb 11.788191526392815 12.02438227367678 9.4821413295572
Sb 13.86522466092959 15.101258289120869 9.548002705435733
Sb 9.740504419415615 10.737829149602739 7.8931879886445495
Sb 17.36465290194765 17.063660805128585 16.907381237763232
Sb 19.33471117310034 15.103400515498265 17.63045478253282
Sb 14.04367182624019 11.576103319119333 14.990601788907487
Sb 13.195007579023144 9.177190807046053 16.42917101354903
Sb 13.656397757165902 16.984683358605654 12.568015033364125
Sb 10.381635133653253 17.257592865313722 9.688072587571781
Sb 11.339113177945189 7.922652633507759 13.573194563765714
Sb 14.639931032372536 11.33231247419969 17.80096394954497
Sb 10.390049448823637 14.920613779061375 11.42341860747416
Sb 12.771861972824892 15.360848830617627 15.486567197737653
Sb 13.427747784590736 18.229827965071575 15.182021027404376
Sb 16.54896548376809 14.459350239477224 17.923264598035857
Sb 7.729688064058926 14.316042683892809 10.376166953106024
Sb 7.546216440509431 11.509257066028109 9.678188955416056
Sb 9.050234947627612 7.885711271301419 11.750581694129238
Sb 9.350214154295958 10.75794536328607 11.759357707228991
Sb 10.269869819979101 11.094089978478468 17.41727347622746
Sb 10.346989836279482 16.935792006583203 15.6486040952986
Sb 8.655855242283435 16.2998099956768 13.311768903178292
Sb 12.244082982050207 12.367970286136494 19.059372376493716
Sb 12.509996141268724 15.147359020786121 18.398698485734837
Sb 6.800102689365386 14.059788873104385 13.126991518092913
Sb 10.241977946513192 12.785096518862886 15.08952563693483
Sb 7.8581318058068845 11.521017195837166 14.09332203154826
Sb 8.44592531663273 13.36381514958427 17.232136462667718
Sb 9.68681514398294 15.747453734581901 18.24980379381502
