54
Energy = -210.96157311 eV
Sb 15.484489054119729 15.60713087547913 8.322790680267687
Sb 17.436204925261535 17.630496810293003 7.814154300408608
Sb 15.645280931882784 19.81121346320108 9.510498984828054
Sb 13.659564716806285 17.76170972905006 8.917798418536913
Sb 19.477914206489288 17.30200445575356 9.658784713775018
Sb 17.32728021581838 18.593240561802375 11.488852041419463
Sb 16.29404443232674 14.453402322028461 10.928622665866722
Sb 14.41502337806638 20.942278497126594 12.062262221722564
Sb 18.969143588873873 15.264638810506476 11.654307942560628
Sb 12.915024380587397 16.707959905357956 11.456100512696208
Sb 20.121692625298177 12.633994445254258 12.08119351493338
Sb 12.215904543767138 19.17193981648167 12.757106234517641
Sb 15.512280793382883 16.57614562171213 12.683418004801172
Sb 16.12866968826519 19.74508535605969 13.993954166903745
Sb 15.256023794961823 12.536389437267168 13.172584763044306
Sb 17.9851730459845 12.062806731050516 13.97205981330838
Sb 18.473117426670093 14.2165567113417 15.830336832322192
Sb 10.653277011093413 16.845741372595576 15.579526684309439
Sb 21.15210683500558 13.620135941693741 14.637163832573473
Sb 14.998385346393793 14.385690926906374 15.234197909062402
Sb 12.619138077744408 12.884376662096779 15.899825641736143
Sb 18.49373629362742 16.825572759543295 14.407522517387035
Sb 21.35841812443884 16.45938846632389 14.14669519902762
Sb 18.64047481866463 17.968645872443037 17.175737475917877
Sb 13.195090717769032 18.23262937980367 15.323018224845063
Sb 10.903765568490007 19.60758826845383 16.427831271785713
Sb 17.287921084369952 22.006502761047265 15.368776875213058
Sb 10.913958773639854 14.683374749856377 17.49419276337652
Sb 18.3977217370975 11.090336144648285 18.240254136095963
Sb 18.83509169527217 15.701685898483007 19.734398675788853
Sb 19.50816111075027 20.714563204043824 16.759489230069928
Sb 21.023280379946428 12.292212610871077 17.93570984878939
Sb 21.446383664484042 17.246173857544374 16.99216942630703
Sb 15.89551928269116 20.587598389125752 17.509238877764403
Sb 17.276135900866255 19.10744449676249 20.405322631120686
Sb 20.176910183664166 11.294374011945427 20.514320578133916
Sb 14.064744920751574 11.363276067308856 17.939684841446887
Sb 16.305516031941966 13.12675752827069 18.66903047970768
Sb 18.026142256473346 21.60708009685251 19.144596175829893
Sb 21.490323241937148 14.995007220590935 18.888856590696555
Sb 13.72391195127473 18.327495602671945 19.721377536467262
Sb 11.582173500394498 20.158693445960566 19.18932277877944
Sb 18.579593975540305 13.452235430978984 21.60191459914463
Sb 13.856939973908123 22.024170437071945 19.012543086057477
Sb 14.825827472122972 20.47004824424719 21.29565275679896
Sb 20.433865490381947 17.156615291811114 21.734646373987783
Sb 18.445254962273484 18.834974109133334 23.0387238245153
Sb 12.685375379541606 12.401908316240506 20.259258046295678
Sb 13.23257788937448 14.97215929407684 19.147367052828304
Sb 15.404542747574077 12.740748661190331 21.450868188446012
Sb 12.846400907750462 16.370027081226077 21.654262697460627
Sb 15.695304536183423 15.681877742369615 21.398291526172077
Sb 19.607672968761804 15.17755971831773 23.699749532832772
Sb 16.986356766416534 16.45316971489867 23.9484696284882
