51
Energy = -199.73793964 eV
Sb 8.544258932087619 19.11737135358819 11.985193164965386
Sb 9.728058348244778 16.881915749810016 17.515548798086805
Sb 11.671862991279843 8.145770988612009 16.245127355100703
Sb 10.730526717023427 8.97122210618916 12.175095208800562
Sb 10.32620816015384 16.885855963550647 11.549689191103248
Sb 16.30287258374471 14.29671853493565 13.432562103670692
Sb 17.044110031629618 10.29484858583983 13.254693654952128
Sb 10.483026315639943 12.358648401803222 10.478705947551072
Sb 16.010234541826023 15.201392782320049 8.850348067688211
Sb 16.095852729292876 12.260052679059383 11.358997692862904
Sb 12.581990109306506 13.133573511455054 18.686135482554505
Sb 11.66322014656366 14.31121418106778 6.494718158238883
Sb 8.27345074208264 9.433071370761978 15.189210524772221
Sb 15.64346498948251 13.669548632043128 6.365640648439896
Sb 15.770408733617202 8.565304128234327 11.33872383727844
Sb 13.204602788530545 6.141959620161488 9.80782316826557
Sb 18.13219655159354 13.355370759094662 9.685535681604486
Sb 8.914546896643188 13.527572004260524 14.324149884526241
Sb 7.98270922146158 15.297130508308534 12.218174808787111
Sb 9.401582809110277 13.910217380133954 8.269215102307454
Sb 13.326256629699026 11.960018566250142 6.536254978511601
Sb 9.965498135912558 7.9064407594036386 9.619380222839181
Sb 14.21566109599384 8.009703562738702 14.895721915798793
Sb 13.689112868495535 10.698629987531008 9.17812487879927
Sb 10.547362964285393 15.022564086876965 19.588973415495854
Sb 16.121833613895404 5.8792470920221644 12.332057986809218
Sb 15.987194117521842 5.531278007135737 9.40763994171734
Sb 13.252464373890966 6.224830789321701 12.776236767794192
Sb 13.562624365563062 14.310138011802335 10.168651634670516
Sb 15.847951275629923 9.611009634126967 7.479786958457584
Sb 8.341720704983405 13.327469436829409 18.660560254376534
Sb 9.156008143506341 18.993031933718854 14.79137381336222
Sb 9.081483934764195 10.53893700149753 8.697031134230881
Sb 14.060226337836733 15.91978491292262 12.53288443222773
Sb 11.764827187206663 14.708989774752583 14.132394210349144
Sb 17.686991338911174 11.792171794667256 7.237999115223735
Sb 9.974181807750849 16.737519388179166 8.718304915699163
Sb 7.763419830467997 15.09499967477009 16.38246663709319
Sb 10.824345930765455 10.80064052578954 15.36185568693285
Sb 17.548867599732986 8.024340741956486 9.183312801662876
Sb 11.514500163250005 17.35522443404141 15.302282772154559
Sb 12.40526483343615 8.308484163942445 8.109086831544461
Sb 7.64630699965172 11.81463629145809 10.848190446876021
Sb 10.382852396697432 11.32932301913746 18.15362127309984
Sb 7.89208619356895 9.338628950426402 12.324721832132086
Sb 6.904071762575639 17.496063237318833 13.793311093611214
Sb 13.537427382392833 14.583863391661055 16.425328979338335
Sb 15.43491390854827 12.56548865171124 15.630258631738661
Sb 12.812723741962193 16.335780504810423 8.233073155163467
Sb 9.82035419191315 7.1026063791143645 14.275594996563644
Sb 14.201389331015271 10.694503553995505 13.773337305309283
