51
Energy = -197.67411905 eV
Sb 7.526443392188212 12.876016306467877 15.135880680895324
Sb 7.709675031271727 9.69169843651614 11.360752087708002
Sb 13.275544364660695 16.891228553803682 14.802320161663728
Sb 15.08544244436156 8.345415496842085 16.981284678559756
Sb 13.04096356781809 11.96140795584043 18.28184909766628
Sb 12.586997824570236 7.024406648916055 7.62363386672096
Sb 16.713009055638157 16.948371220136078 7.549535423594758
Sb 10.107455665457996 16.358260102611275 8.07508052933724
Sb 8.612658376223274 9.679859700500526 17.392622368531384
Sb 11.898459532655226 9.697512799464114 10.16986256819602
Sb 14.012140842383648 15.632496952377673 11.036332720370838
Sb 15.035927807718553 14.729483867067298 6.84104432290292
Sb 16.039960473147396 10.012039693445868 9.501639998214031
Sb 8.72550103665235 14.33851913356333 11.587530283955937
Sb 15.633548440309927 10.537371560775492 6.707943812788575
Sb 14.917869397880692 7.360394402045099 9.290444669575798
Sb 10.84808670316788 10.454981731400776 7.564443032024827
Sb 10.058982217469744 7.985325818201591 8.810165782526985
Sb 11.113798106294706 13.998944656090552 17.52871296556257
Sb 13.943926860755834 16.979857622922406 8.190846753645465
Sb 10.309623752208145 16.55538313740143 14.84917009508921
Sb 9.059911657787655 12.551800068116126 8.499146035658226
Sb 15.70738326713608 6.6839665477404955 14.68245629910104
Sb 13.335967483668238 18.204385363446796 12.252900189851095
Sb 11.521297001681601 9.883087011915547 16.835121726144127
Sb 13.505569394905265 8.923202646324507 5.682494826593056
Sb 17.098092306126144 12.735467953202031 11.798081792989857
Sb 10.56255038807668 8.91975513915873 19.381856702576606
Sb 8.070815225187252 18.12022920215572 11.276278744763571
Sb 11.598552226924609 13.957484439929852 8.761019519451423
Sb 13.946284042843063 14.391384974663616 17.026605968344402
Sb 15.20570308779078 10.717917108313424 15.347601561717322
Sb 9.437920163482028 8.704491259645893 13.451957636118948
Sb 16.222186249247507 15.12393767834562 13.110680494166822
Sb 9.55445997164738 7.022904873521578 17.45831645946387
Sb 7.586135066048436 15.930293704160409 9.437139276883594
Sb 10.149180171671617 14.073697447362258 6.292962975759871
Sb 10.368390036182204 13.6288603717259 14.688720575193855
Sb 6.1646289814904405 13.846452303724805 12.74850070279705
Sb 10.103447297443914 11.125686210373193 12.000210189605141
Sb 12.484890448202488 6.982119426069366 16.481148849707306
Sb 7.36002430521035 16.37316357578852 13.495413512723587
Sb 13.023079838104373 6.9438121234932195 13.676403219085591
Sb 16.34705303572396 14.725339673477087 9.473603478240125
Sb 16.01019972661096 7.674184391709138 6.555269362409442
Sb 7.067754167651058 10.15241376781857 14.187658233278988
Sb 14.477080300916771 11.919768784105166 11.007174022998266
Sb 13.770115464054644 14.074122317499352 14.139209148071847
Sb 13.465651328301819 9.8675134323801 13.208551072918963
Sb 10.680443988710634 16.900697081569795 12.003785578168122
Sb 16.278568697874583 9.142235539409885 13.117986159224333
