52
Energy = -202.0077467 eV
Sb 9.444685512146037 16.846383081305117 9.446834965117038
Sb 12.980328036082682 16.26746703721713 8.115869117260424
Sb 18.14565329323788 13.910030562593535 5.500477574911956
Sb 10.743921855829932 14.346514661128095 7.9148127391396175
Sb 7.736311867156964 12.560840335949079 11.229229365196288
Sb 14.251301455011337 13.232260677640875 6.528701777999354
Sb 17.32099068261217 15.678610994045137 7.711358745465053
Sb 6.482416073009953 15.855019022428156 13.560471828403514
Sb 8.585560453560129 15.302852867907283 11.706422489571796
Sb 19.004452170634394 11.818275088370408 7.359371306752947
Sb 12.051880956148151 11.634695002694313 7.456131380190403
Sb 12.104717754960706 12.944341936998857 9.997492684759324
Sb 11.929516564055366 17.231325485615123 10.652683180056206
Sb 15.064745153939004 14.410669482986291 9.008827349248884
Sb 16.54003485427005 11.587239145818824 5.914175256446374
Sb 10.382900273834895 11.483419451836175 11.838751176707316
Sb 8.100426668461795 17.366242707640772 15.44011390923402
Sb 9.500100952950808 8.800966391537175 11.463883632811568
Sb 6.599674169093459 12.902829193698054 13.886547877611955
Sb 19.230624607375038 14.062704201632227 9.168099205992885
Sb 14.460085726404106 10.306248546266284 10.717343350280542
Sb 10.253376064529201 18.08066004339744 13.592389028351642
Sb 17.98131877534271 16.80231655172162 12.386849618111402
Sb 7.93095712749858 9.302003957155108 13.80325087865422
Sb 11.947912412982062 7.913854537827869 13.069087115469179
Sb 16.07137800418622 14.6103194436837 12.36782977036163
Sb 9.172098010783882 11.808099422926876 14.782321232164614
Sb 17.318070889927593 10.580811194970945 10.460090610803487
Sb 14.92475016744149 11.406061860713399 13.33101905440865
Sb 11.001667036520843 15.282992412315517 13.299057050779219
Sb 9.865256506604215 7.28751761635244 15.002111328489745
Sb 9.535092730652261 14.919924260372634 15.899621583977066
Sb 16.317799663146452 18.801134758723837 13.73878435148684
Sb 16.191375646969128 8.926817750690605 12.578648981464015
Sb 12.450914879802516 10.364505988605426 14.547017865475219
Sb 12.263521949134352 18.38531467716364 15.666640994378959
Sb 17.76949440707137 15.023703724907469 14.681343731308845
Sb 9.274544307820308 11.489795544938795 17.627817091491444
Sb 13.670121373265873 6.168312698622638 14.905205677460938
Sb 18.357697012494782 12.96659275500735 11.714216911066178
Sb 14.083704270315204 16.987831373811854 13.923387404786961
Sb 13.205205289718592 13.920528675155028 15.738865840054597
Sb 9.774837009349786 8.65328201686125 17.544840230277696
Sb 14.255483863139803 8.763728802578138 16.182889700624777
Sb 11.806392311422886 5.680425960591424 16.926560184146307
Sb 11.831292153685114 15.960570021636634 17.259138589458
Sb 12.308266578389873 11.85103678232577 17.657042728069765
Sb 16.06833508832073 17.00730265517126 16.006881143041902
Sb 12.462452708397144 8.155089203665112 18.379534505704278
Sb 15.5642482579407 13.756966180499585 17.521682783242778
Sb 13.924533996899818 13.063699817263291 19.780779547339197
Sb 15.435213890955257 11.054875294390712 18.394303484647534
