52
Energy = -203.30905692 eV
Sb 12.387099806791213 14.511058427064137 7.85737244671338
Sb 11.774643341559846 16.95251567174273 6.344532293175412
Sb 15.395922922326378 17.289314549077215 8.413252170858128
Sb 9.404681580181693 16.12148979885045 7.791355756034515
Sb 14.827126722027938 10.289909475884574 8.899953133947474
Sb 10.711056846368669 10.069585656846186 8.650684780672059
Sb 15.324908363808046 14.405464398413796 8.454402671054924
Sb 14.556795954334673 8.764884170980034 11.370246636135422
Sb 16.594747187372963 10.799889389901416 11.114387627801621
Sb 15.975664858939338 17.11534758680563 11.248435958712799
Sb 14.08783020064268 19.155006960732706 12.121038199655978
Sb 9.866440516166453 13.543222124171702 6.645689487407271
Sb 12.655615001776388 18.19829460104984 8.80882932769432
Sb 12.62460565226698 11.895171585905961 9.821782718057664
Sb 11.384641111683553 15.942421322882012 10.168402445245965
Sb 18.141741163530813 13.601729157350587 12.976443079569115
Sb 12.500539853995381 10.526643496895693 12.437705968879833
Sb 14.309958063138646 14.755306306412244 11.087565051504908
Sb 10.492862240637372 8.760674268648396 11.304743193224152
Sb 8.486012110658201 11.954747536790903 8.626177797761073
Sb 19.75420932108281 9.031999403663903 13.16146382187343
Sb 15.372555991064145 12.712439084250084 12.927090417276853
Sb 19.36268711985382 11.541669822889418 14.659905615289832
Sb 18.12147376653859 15.4622988220287 15.219160330564808
Sb 8.925911493875116 16.05116131711122 13.329643709227394
Sb 15.699011993523166 19.135649487860324 14.542989347047724
Sb 15.41375406990039 16.23254688923062 14.687478922262342
Sb 9.48521595720395 12.842013269962836 11.163585281207796
Sb 11.322672844163764 7.3992716272669545 14.583733488318375
Sb 13.234116581811344 19.096700148822855 16.130846965480814
Sb 8.210943659935936 10.413090656147718 11.930294052248428
Sb 7.215627913364099 13.860155335909973 12.632641940535501
Sb 19.39387874440071 7.822312488727657 15.760443557741867
Sb 11.914793930294406 18.173580055296796 13.742865008425719
Sb 7.743511959309814 16.488240090164595 15.874137081783969
Sb 13.581825305650653 9.074603279645485 15.387777945928745
Sb 17.43847987436762 13.254961219352964 16.960516082366407
Sb 11.47688742426917 15.078038958265287 14.398902770904897
Sb 14.664031770408307 12.65607950685944 16.611374706805766
Sb 11.145371148641908 9.098003255451305 16.8802151006059
Sb 17.24345312943258 7.848539614517865 13.875441984420714
Sb 17.353236693466794 9.927852476196886 15.923394366092467
Sb 14.902555552550583 17.012879935122545 17.391550080168397
Sb 7.8334951178906165 11.736999796927298 14.536207531220963
Sb 13.231024552126398 14.779903515443147 18.00967629450035
Sb 10.274964586677934 12.588810476487545 15.71734693473497
Sb 12.854448528427183 6.730675689910496 16.899838494931842
Sb 10.530524993846726 16.49763316509969 16.780012707953773
Sb 15.15516577511028 11.606400628854713 19.345782829913034
Sb 17.228352562465336 13.566065986495541 19.826507213312293
Sb 8.768956114032491 14.281990438888675 17.45416420984427
Sb 14.524992577932116 14.169807092090329 20.5201744109267
