54
Energy = -209.45868263 eV
Sb 13.47734143418338 18.692798741905733 8.50029918045207
Sb 10.655043906210803 15.461333060405396 8.661357012563737
Sb 17.805247888242352 18.067430122009217 8.816389745594417
Sb 12.903580002623015 16.430988933927754 10.119280979561125
Sb 19.074407602918402 15.485378346271872 9.39156078394738
Sb 15.678692952489307 19.41097604410555 10.218904500857711
Sb 17.471143758901714 13.155832757553611 9.982835556672406
Sb 19.524416614075765 19.101315549927385 10.927519132783708
Sb 11.49886967946194 19.611863670625027 10.424209961326357
Sb 15.368740519750077 15.004680182919303 10.788432586812919
Sb 9.45883500854298 17.648320816977307 9.809123056585479
Sb 10.862215835550188 13.869926276980495 11.659081364820212
Sb 20.37779833474193 16.526037246116772 11.731281309635312
Sb 17.09450244284268 12.856712622983506 12.86875204059379
Sb 13.665957435611965 13.38718284770408 12.463583637220669
Sb 17.69208240748667 18.872401478684974 13.338478980344354
Sb 17.48881269383976 9.980018621747474 13.143816468555965
Sb 19.107876059339983 13.796777533470445 14.787322197216207
Sb 15.09411108395821 17.735388655737097 12.48977234287957
Sb 12.78461218798755 19.399877286565747 13.15873693997201
Sb 9.53880761481176 13.439482297206316 14.211725743043989
Sb 19.272998725074242 16.74327869486132 14.628646359644026
Sb 9.686803986282051 16.070135722853543 12.944854496290922
Sb 19.620598952389248 10.399188055109207 15.09482198726889
Sb 14.890270361818384 18.974996679449607 16.186200691680046
Sb 16.835586791366772 20.81235371949213 15.380648891840554
Sb 13.713032586457173 15.136493603164352 14.76310746737147
Sb 16.87481467219007 10.4582553417467 15.912331480460178
Sb 16.824918293776015 13.319273026966544 16.50198890426031
Sb 11.69316086034567 17.202297416154362 14.67112000530667
Sb 17.16250564342504 16.84250088659939 16.801711200815635
Sb 19.718445392099063 15.650092234615222 18.0957773776907
Sb 11.782849039129797 13.378964260240167 16.039774514121103
Sb 13.356276642748984 16.15649441496231 18.266591676199877
Sb 18.38144037729824 19.359304960273143 17.581484057542184
Sb 20.635338135960165 18.062919553666653 19.195311764649436
Sb 10.450766131549498 15.435574513530222 17.55915169232338
Sb 21.877789417198734 9.575268562225155 18.089808960022744
Sb 16.88859469368471 20.02548514268054 19.97972214497868
Sb 19.543300428319498 8.265885391863112 17.07425997166276
Sb 14.345206328396992 20.447166112720524 18.660871925774373
Sb 21.01947605793946 12.275807393880287 18.717224305700537
Sb 17.975895420905797 9.467893523761603 19.227830276065742
Sb 18.170265882599153 12.338689496408946 18.977976888288037
Sb 9.793584971318039 11.625398653098873 19.702246389762216
Sb 10.751004566172996 14.287186907063417 20.252537465469274
Sb 13.73388775125801 14.591400132361068 20.633170011905122
Sb 8.146367592731306 13.276933871638438 18.059703264078976
Sb 19.03479136683313 16.29688860919501 20.839996495005238
Sb 12.697183970936347 18.41250437258671 19.95791268630351
Sb 16.411395453961486 17.211700513712472 19.968140554091473
Sb 20.524589044784598 10.079058978508264 20.576686144500467
Sb 14.326187820417182 17.10715323687885 21.979758792999604
Sb 7.891614862236376 13.432770609080135 20.840205319659866
