6
Energy = -21.53815313 eV
Sb 9.733993039903721 13.247970899239585 10.874242100959169
Sb 8.1129377212228 13.60208934664722 8.984155241594573
Sb 12.012753314549585 8.606957599736734 9.270327414880587
Sb 9.289019379403308 8.006437073947104 8.671152277912197
Sb 10.59493649895811 6.709942040247723 10.862896603349387
Sb 9.931267847472132 9.501510841691422 11.012134162813737
