6
Energy = -21.6845251 eV
Sb 10.874586839607 12.781710284229913 11.177947242783283
Sb 11.67346612953201 11.458744929943114 8.797820369714353
Sb 8.678672001020507 11.004754943741938 11.59044792737666
Sb 9.111734036396294 10.1380674825649 8.81395574162328
Sb 10.280932804331043 8.713098186013465 12.1588700804693
Sb 11.483723156091003 8.672098946086848 9.573460618177911
