6
Energy = -21.74471594 eV
Sb 11.433385291799826 9.056942161393843 10.58138708749422
Sb 9.319133759432424 12.628677687708327 10.005973220163808
Sb 13.268001749286476 11.317931313603372 10.410992382360067
Sb 11.480340271856743 13.09565961398656 11.79170498844231
Sb 8.804368808770231 10.06924507356443 10.950513757260257
Sb 12.262036405227798 10.50949170376309 12.922705306764598
