6
Energy = -20.24956422 eV
Sb 14.06434231961504 11.972649011140879 10.370957239461129
Sb 11.146158123195727 9.093266868110454 11.518245308456596
Sb 11.68026073288972 10.890972833679303 9.3038816806854
Sb 8.73805065684721 8.605509525396315 10.086291200579016
Sb 9.821420082966442 12.751002059112194 10.483485368389285
Sb 8.752946594114906 10.617996302358916 12.09526586627102
