6
Energy = -21.00803592 eV
Sb 10.579083228659055 9.34644425083908 9.21700540817908
Sb 9.036780448092218 8.403683594546067 11.599503198781917
Sb 12.39176602138716 10.828840626716001 10.864352488779947
Sb 12.490537713821812 11.730735308334028 8.177074389232315
Sb 9.955955907106581 12.055541377154347 9.987688765183249
Sb 8.398090880866683 10.886220479149467 12.303152983796144
