7
Energy = -25.51998935 eV
Sb 8.975259152595985 11.641442650880101 7.099174238147265
Sb 11.225008760321405 9.0715559564885 10.275130442512278
Sb 7.885936295160663 10.362867766988886 9.436393870965304
Sb 9.409171490030912 8.850188413419078 7.509553390106068
Sb 6.7530525127640635 9.869228898474626 6.848628147584423
Sb 9.341103576342476 8.332900814363313 12.307730169056006
Sb 11.027877964211799 6.48922525081319 11.14079949305609
