7
Energy = -26.40994653 eV
Sb 10.820331622609027 7.323010859897723 9.288582289000239
Sb 11.430483325240386 10.060399705082657 8.884829718548488
Sb 8.68849726232204 8.049872677520971 11.083825489205855
Sb 10.138658178124004 8.58598450277718 6.834423033461698
Sb 6.369829534904128 8.483163765771247 9.47509199155046
Sb 7.696296854946859 9.987380746386432 7.441685446326187
Sb 8.068191488030703 10.722476008741195 10.203850298084092
