7
Energy = -26.40999119 eV
Sb 11.154587753730219 8.779786830847764 11.688449472129713
Sb 13.284131614398321 10.262776570866142 10.431749444885849
Sb 9.760186722058256 10.579571140155268 13.408401716679565
Sb 8.821275973253202 10.140376483345008 10.702459846155596
Sb 11.516681093434704 11.10096992014051 8.375309036655532
Sb 9.692341866775504 12.749915912999851 11.556164338548333
Sb 12.319395104299998 12.935544689804354 10.386066272895517
