7
Energy = -25.48102858 eV
Sb 8.866115072216605 12.613502139864526 7.249565826755873
Sb 8.865671508267837 10.472843448544594 9.458069291281413
Sb 11.186285123150062 12.002328761784153 8.806724531307658
Sb 10.407596503836748 7.980403901002623 10.430428949190675
Sb 10.171840952118334 10.103726454137599 6.934928122175858
Sb 9.620081669435246 7.694621328284669 13.107813271509865
Sb 8.14505542584069 6.395220221247083 11.275116262643905
