7
Energy = -25.34021771 eV
Sb 11.54686260860676 14.089397034018184 11.711005619694005
Sb 12.524667747112705 11.225130560954439 12.192691376548495
Sb 9.259625102763213 13.224778977923306 12.841613901928913
Sb 9.784631162822661 10.29416779959981 11.929167263574689
Sb 11.139587821433684 11.734487505498707 9.799652651703006
Sb 11.298049521833612 7.93520291628191 10.56478397372149
Sb 13.288008059601033 9.554289838014212 9.742802325116314
