7
Energy = -25.28788341 eV
Sb 12.902526191589317 9.817475334679393 12.270682564696266
Sb 7.718093543716455 14.342982806102595 12.865707095935079
Sb 14.527046672834524 8.45229497031512 10.356801215687703
Sb 8.19582316435468 11.67556494983905 12.555419950699394
Sb 13.828251378679429 11.190976706699397 9.94647303296198
Sb 11.83788532187712 9.160739179041466 9.707560425949227
Sb 9.308002698292297 13.658659874675982 10.76146704239123
