7
Energy = -24.74887323 eV
Sb 14.294913645305558 11.193730159722767 10.268413968321246
Sb 12.0515037003215 9.377518067556327 10.90188451286227
Sb 11.58557868383578 11.882257595616498 9.350071590703314
Sb 10.523963376141696 13.125512829514022 11.740222616093263
Sb 10.940462772303295 10.650760038084465 13.25699303791175
Sb 8.546322323749807 11.766982965600388 10.149749304687425
Sb 8.996172694770973 9.327960556205513 11.595029361606025
