7
Energy = -25.74864535 eV
Sb 11.872496956854928 8.882814059340046 10.482085096913538
Sb 11.689775798082245 10.176296920572272 7.963640694319676
Sb 11.034204981473616 7.5306150219698464 8.197460930687262
Sb 8.88989664397419 9.929547192891162 11.141705212337902
Sb 8.43723749901349 10.624748829499879 8.391180062013913
Sb 6.103891505634646 10.461203722200505 10.115641814542846
Sb 7.6626156942378 8.08489333279734 9.398405268455777
