8
Energy = -30.10152931 eV
Sb 9.176255953404675 10.921545868933736 9.415523977857847
Sb 9.819157608857989 8.4330270819146 10.922672716759278
Sb 9.177674727177221 10.92148259506127 12.430538990908701
Sb 9.816761574777983 13.410614843166808 10.922780843754209
Sb 12.053839566021866 10.92286791429455 8.855455538721259
Sb 12.640398626618607 8.97532351717546 10.921470989611322
Sb 12.05574761826627 10.922853134905855 12.988054222809106
Sb 12.638506782873053 12.870968922754349 10.921503757367574
