8
Energy = -30.02537294 eV
Sb 9.99358584836305 11.77839871385919 7.921683906193683
Sb 9.652744085561674 9.199021651479967 6.70908153902634
Sb 11.240313576826999 8.002780658723752 8.800043486133246
Sb 7.6132426062071765 10.193095799419162 8.57562327431025
Sb 8.517874932925846 7.650733835302807 10.011497280419048
Sb 11.599599044099453 10.574615771833239 9.991501581557596
Sb 8.913755811357454 10.507819226315045 11.329924599359403
Sb 8.533467036026108 8.158117284434734 12.725227274368192
