8
Energy = -29.99950542 eV
Sb 10.12710644297932 6.702262239487776 8.80115754432319
Sb 7.835798151944122 12.330696737291495 7.857232063906822
Sb 12.11578499379984 7.895317604227654 10.357634018150357
Sb 8.681578232360332 9.444593889123887 7.868577079365901
Sb 9.612164611572078 7.13663146966248 11.527273068014619
Sb 9.027052659852357 12.881513662099902 10.160522055667174
Sb 10.879441792572 10.514928843080048 9.419109383797547
Sb 8.43807880536749 9.8110612454743 10.7255004772222
