8
Energy = -29.73902103 eV
Sb 14.28357243470533 11.606884664910496 10.906221605940276
Sb 11.282920896929692 11.267546844263013 8.891710575442978
Sb 12.302509313990022 9.42804925854604 10.875539927269255
Sb 11.888030205421725 13.21419616575943 10.942811806189003
Sb 8.958641754603391 8.47804008960483 10.900143940269917
Sb 11.236308405409885 11.195006588237964 12.904089866660753
Sb 8.397951357842727 10.881607457858356 12.285271189012358
Sb 8.440062372833987 10.843470186508645 9.428289136603727
