8
Energy = -29.90244739 eV
Sb 13.369529898751539 12.046155033266679 10.442665387649766
Sb 13.514765199196555 9.508109862694223 11.218132201219086
Sb 10.801073334094852 13.046611842510847 9.837462331650013
Sb 8.44337729060622 12.11335813623387 11.171150866195989
Sb 8.979759562125924 11.33105596140045 8.450447934901053
Sb 9.14621889201678 8.55121923391121 9.285466991403213
Sb 11.083449854574383 8.081995206113945 11.338462469103861
Sb 8.597773287196013 9.342519245543489 12.00134534191787
