8
Energy = -30.40135719 eV
Sb 11.279851628848334 6.960985229983102 9.77885309288539
Sb 10.358934196077819 9.360070689804559 11.061358382904759
Sb 8.885302853382171 6.910678529092571 11.347289274703801
Sb 8.737917839449425 6.500224701347957 8.506778878596345
Sb 9.04743792458538 11.056584508010234 6.598291016764937
Sb 9.223042922999369 11.452960477528476 9.43797497093739
Sb 7.600553600737667 8.592493620760386 6.884703000172485
Sb 6.677902138641767 10.976945348194514 8.195694487756567
