9
Energy = -33.35924623 eV
Sb 9.757982990497755 14.818382314025868 10.354538078257528
Sb 11.513356345350273 13.255260955341374 11.816785185382614
Sb 9.710250468073367 12.089664003414088 9.83730273566227
Sb 13.830957396526625 11.699169919356063 10.641166648837096
Sb 12.082450303127615 10.569093731474238 8.724509766281074
Sb 12.969205737919257 9.773636423689442 12.666082347607318
Sb 10.668034391257388 11.165821944049624 13.822698112495058
Sb 8.944846084326254 9.997906928966179 11.898011527367172
Sb 11.209293159141062 8.5889902039086 10.694260169029722
