9
Energy = -33.82513426 eV
Sb 11.30135377386771 10.758203750102837 8.372765776544226
Sb 11.61932387428068 9.537783665848483 10.918652526355746
Sb 9.415874760081497 12.856970705218291 8.819804600153313
Sb 10.463259211338682 6.912352226308602 10.430847688861418
Sb 8.9801539760293 9.829935707529437 11.970003628455402
Sb 9.746944552723049 6.672197608957458 7.702996249439323
Sb 7.967131583268712 12.244376106245513 11.005848598014556
Sb 8.963834333592732 9.423800894326304 7.398537353593911
Sb 7.873602867991094 8.095858268636391 9.7120225117557
