9
Energy = -33.66964291 eV
Sb 9.269574565029455 13.990921434810815 13.042023738094972
Sb 13.381486055629313 9.963418227229658 11.321350445818613
Sb 11.13363676864428 10.114739798273192 8.082307738589039
Sb 11.177720472658862 8.341253335727542 10.347587795883614
Sb 13.517392161667544 11.393977609087328 8.848340619045144
Sb 9.263267103489186 11.250729066939066 13.65443324398927
Sb 11.70412032480574 12.464211227804299 11.043188167966802
Sb 11.613048631042027 12.759826122693148 14.024346930398297
Sb 9.44149844086262 10.643364178088323 10.643888886477209
