38
Energy = -81.07481358 eV
Ag 15.000496621224654 11.838048555490358 9.692211802212624
Ag 15.864397651440132 13.929660157337628 11.445077417747376
Ag 15.345819649641033 11.371655707668669 12.455024580707272
Ag 14.814075755985584 9.18085054528873 10.657524598226521
Ag 15.145356961790895 8.793983810017815 13.397533792219914
Ag 14.069636154072363 14.882166992578389 9.521624661356007
Ag 13.37859310151098 9.847687505101888 8.328290847173529
Ag 12.526924735227297 12.503199115834624 8.649522245581375
Ag 12.881292307927305 7.683327517843436 12.150236908103231
Ag 13.205551943459161 13.075064026676026 11.5163686487521
Ag 13.010065386745957 7.312905117780357 9.442862228897281
Ag 14.220369426027867 13.524253376286772 14.070459160852167
Ag 13.974992225932272 15.777372780798506 12.31131005554037
Ag 11.168809506597373 10.772022167421957 6.87806867942696
Ag 11.620332454064355 15.06956939284882 8.134548452758642
Ag 10.921641484938911 8.180633361308274 7.872820030497094
Ag 13.730427468642315 10.852579295555527 14.716498913980605
Ag 11.593887886823236 15.550052325535992 10.886239398267444
Ag 12.894260636673685 8.146700794195489 14.905830932903442
Ag 9.761168089876767 12.891894430551739 7.931734633947606
Ag 12.075508822286686 10.465961460551336 10.75268171460796
Ag 9.140381137252987 15.090092160922959 9.580477295785021
Ag 9.414619234363387 10.269724736076535 9.045675953445794
Ag 11.338161991052331 11.642611392944021 13.273446237574666
Ag 11.586224765508492 14.517855046989075 13.47544146335436
Ag 10.563410372133921 12.86591688047291 10.763665846378869
Ag 11.904280554832965 12.880696121067011 15.763739256575857
Ag 10.493751300413754 8.087896129432549 10.65184352314167
Ag 11.189255091933399 10.157089089503165 15.806277808150355
Ag 10.663362342049133 8.729472415074614 13.422542302144837
Ag 9.373590137564097 11.845127521427942 17.026589982574013
Ag 7.909022123332865 12.552544269443644 10.04320183701152
Ag 6.850836454835618 10.095386388160525 10.664255358384805
Ag 9.280359508700284 10.403289493927659 11.786380760667019
Ag 8.98661275287016 14.58896493174227 12.291868753244644
Ag 8.724479210535671 10.509447999892352 14.586072521506047
Ag 9.315443157677192 13.253529040261428 14.675143724538742
Ag 7.409132517991436 12.207298869925017 12.773438595698972
