12
Energy = -40.78455654 eV
Sn 10.577736049003633 8.656179025018579 11.2252730578898
Sn 8.1609310555385 9.226453660551895 9.759646273225636
Sn 10.973466244592888 8.254595396645744 14.121717755812972
Sn 9.069099288805395 11.701424504785205 11.649957462376475
Sn 13.348883574721926 8.0685060929282 12.231265576846143
Sn 10.436788927071555 10.788761889787617 8.492233713294924
Sn 11.858206766536137 10.868970214801593 13.30348181410622
Sn 7.667995172881044 12.117611473604516 8.916140524427684
Sn 13.162898009145499 10.442760014693132 10.566221581810368
Sn 11.94820430192885 13.345890351255877 11.552231176850304
Sn 9.907837653370532 13.843199865364882 9.383348992821206
Sn 12.84298997119673 12.64211408585125 8.677884165277515
