11
Energy = -35.33023716 eV
Sn 11.113850813725845 10.604903671793094 12.699803786136165
Sn 13.57860257406058 10.580989703472651 14.192936081893045
Sn 8.10223065616743 8.385652046518503 9.673337880178988
Sn 9.669274548507797 10.637313113330265 10.12126111110961
Sn 14.237899640274302 12.411130380385007 11.816096259482538
Sn 11.65908196282161 13.322671492213063 13.66093970106717
Sn 12.427263614375441 14.65846102749111 11.073234129578179
Sn 11.675645482721334 14.61518360505595 8.406853660281135
Sn 14.259842071742888 13.240276330893249 14.978251074120106
Sn 9.670972050058984 8.133387338816336 12.040063058865286
Sn 12.262300273177122 11.976700906822941 9.530086549170866
