18
Energy = -62.68520138 eV
Sn 15.524958881956708 11.821051930399125 15.48892512911565
Sn 14.398516869603366 11.308676103080254 12.835401329716904
Sn 13.934842325822778 14.2834988946892 14.547722910171832
Sn 14.969112636526294 11.728692521535653 9.88786160558376
Sn 12.899893821499743 12.352429250346818 16.846194407052753
Sn 13.341103780889448 9.56480252128173 15.486478148190805
Sn 12.899916838484748 13.828199044149702 9.441195135844179
Sn 10.90527838810185 13.929565401460259 15.252479465476265
Sn 13.078955245782932 9.220322011287541 10.391148702818656
Sn 11.146734847474022 15.865651821620277 8.45926872943677
Sn 10.567966719354176 10.774095281537734 15.734245573881644
Sn 11.625056169062463 10.071205976190646 12.94206021733297
Sn 12.540337145531499 10.987193217078579 8.050243043345674
Sn 12.132048615011671 13.170732254384992 12.457514290837041
Sn 10.293188253515261 13.064169707328956 7.821897037967014
Sn 9.322419096644948 12.232657351552682 13.108188705014628
Sn 9.81660384699399 14.29896872768135 10.659081544214203
Sn 10.09680824009739 11.0373508577657 10.110370917754427
