15
Energy = -51.7184472 eV
Sn 10.499321096707197 14.499502761578173 11.189610697686827
Sn 13.444821643664694 13.475170704632525 11.45766837689769
Sn 10.514233909974163 11.74460019482966 12.16902951745328
Sn 9.569812546019667 14.80593175465021 8.350812667304885
Sn 12.092167223822772 13.41273401398363 8.692251093558719
Sn 13.520185713532848 10.606703073431543 12.536580095773344
Sn 14.064364669968363 11.22794470197504 9.383453832299113
Sn 11.127330017713975 10.732934433780034 14.863808726859556
Sn 9.16525063491559 12.073316371843736 9.299609120022595
Sn 8.404023204046432 9.885180026142628 13.154123412485303
Sn 12.692804294971983 8.520432189534253 10.136467533145344
Sn 11.47781015261055 10.437245891358808 7.960629209245425
Sn 9.460742107690116 9.230098758947776 10.195933299620448
Sn 9.71969043336907 8.115285798745795 15.08469656747617
Sn 11.2751270433233 8.37935423420726 12.693934169999945
