17
Energy = -59.05318787 eV
Sn 8.784195277624619 9.185102931127616 12.994149819683608
Sn 8.94667049481588 11.800272646104942 11.348462180238924
Sn 6.5817737829741905 9.630848182448776 10.99764149652988
Sn 10.60231194075592 7.005151373626154 11.449818263323253
Sn 11.476595177244748 10.000625318037487 11.67881069859561
Sn 7.549319507199644 6.6506896222189 11.57967065310451
Sn 10.2352688628014 8.730946892176798 9.008076074358682
Sn 11.27637469911373 11.694071892841013 9.059265124604952
Sn 5.925970234114585 6.837849292651879 8.985735746940753
Sn 8.875391107442862 5.80273998904818 8.858102591238167
Sn 11.975869270960224 9.800460869919373 6.696987851040891
Sn 8.104252743751381 10.908621123138818 8.48942385731073
Sn 5.275551911989722 9.708600263585755 8.299833618558141
Sn 9.805214920730588 11.95601961337676 6.255854847655395
Sn 10.846401812467375 6.99902615941037 6.465412581029571
Sn 7.847135580603179 8.195986777645452 7.063941672714922
Sn 9.500687163361471 9.223564762480814 4.863940935592309
