16
Energy = -54.917146 eV
Sn 10.223514801151868 13.417720667148801 9.915255960485391
Sn 10.58414211953926 11.897688246127245 12.597545014829747
Sn 12.109900649105892 11.453178658263578 8.61167252170593
Sn 7.719159619289979 12.622285079351878 11.666429979123876
Sn 10.300467230748946 9.681956988808764 10.621973167557503
Sn 8.926075706274963 11.233130688895058 8.230556305713321
Sn 8.32667268784813 10.110035545699446 13.287453674643036
Sn 13.311287012087373 8.76146336346946 9.421184565856802
Sn 13.10989773395865 9.738912675354563 6.4430779654602555
Sn 7.205721806068406 10.001842670685908 10.307333240443317
Sn 8.307089542892694 7.249405437613219 11.403638125166797
Sn 10.631055671797833 8.612336892330294 7.352953487425241
Sn 11.073641324601962 6.75248606660747 10.144549997366832
Sn 7.661715593647918 8.91861358130289 6.731782646030421
Sn 6.196521864511975 7.562574004662713 9.083080585197417
Sn 8.80627859184329 6.389694212806936 8.216431865241496
