14
Energy = -47.92400409 eV
Sn 14.131354889883461 13.022699235256649 17.32066158799966
Sn 12.700440508659403 15.021844993127536 15.496583017945767
Sn 12.056274921848212 11.736113473018158 15.387425644938306
Sn 16.96058675931075 12.648935899686743 16.0879293978402
Sn 14.742007288366077 13.416088973345765 14.13102706730815
Sn 14.966724875764017 10.395409347974002 15.752239963630965
Sn 16.668213051516023 11.364346576630004 13.35267695956746
Sn 11.633434287625015 13.735966304641739 13.08261442215502
Sn 13.121415733009988 15.846765929843913 11.110778703079673
Sn 13.656160797527745 10.757284626276016 12.912601658415488
Sn 10.025124505708364 15.101534448127868 11.065706759810086
Sn 12.453564085070782 12.91000813422674 10.29303652074229
Sn 11.758182851026717 15.345607406813087 8.617847332571255
Sn 9.83356062267563 13.054093569062946 8.90644826713745
