15
Energy = -51.51733338 eV
Sn 11.896546445983775 11.051576545071402 13.291186260081119
Sn 10.185378558126732 10.329851786849439 11.024507032943633
Sn 8.400874968922174 12.685812736482324 10.94002146055105
Sn 10.349306191226738 14.170425804177457 12.504793938458068
Sn 12.824665104455226 13.737120329578733 14.195766568274781
Sn 14.088516067582246 9.253723316741532 14.576149231939077
Sn 11.51765966226499 7.974512408367589 13.735313526625445
Sn 13.789185830217276 8.657086212249226 11.722950631317275
Sn 11.177253307448819 7.589995671503329 10.801558642556797
Sn 12.203555660661873 16.535687784008683 12.894836617077237
Sn 14.81420445775609 11.598540915162232 12.539393734818386
Sn 10.809601182691306 13.500462907645177 9.297136586962358
Sn 12.952192876280748 11.296556706776814 10.06936865340118
Sn 10.705357942816711 16.34158650792236 10.367021919890664
Sn 13.258067599494684 14.34241988020132 11.03370491262846
