19
Energy = -66.21687273 eV
Sn 9.263325307669424 13.349831762671124 7.857215284357964
Sn 9.668314086116718 11.638985618104678 10.399177202457436
Sn 11.488052976808701 11.919713085523398 6.329010431693503
Sn 12.090398743866714 13.24347865212534 9.081705149354024
Sn 9.090223749135895 10.410836472041538 7.644755512541548
Sn 8.66084216448213 11.097057694610069 13.182859009560845
Sn 12.741808245006997 11.151087548801806 11.19487053698052
Sn 13.548094067224662 10.54680288460261 8.28462481947167
Sn 6.814859985741508 9.93893434000805 10.687913891842992
Sn 5.849703068185435 9.892237613604623 13.356962728560859
Sn 11.11125473016179 9.199715302230821 12.974565433345443
Sn 6.368790638588921 9.147023904170092 7.864517088659094
Sn 11.561223337539918 8.788589695613686 6.579706653790884
Sn 11.155684948477846 9.057967215576333 9.67925508855219
Sn 8.551729163926272 7.466871014348026 6.686587697616702
Sn 7.999116661545012 7.982316216139473 12.83021293412868
Sn 7.570130347645761 6.878339587854552 9.665095406941516
Sn 10.323263617144399 6.664147582974954 11.538153040961708
Sn 10.53316532874738 6.222391489025352 8.48106414960755
