17
Energy = -58.58761973 eV
Sn 7.921329698805046 9.232505426423126 13.043231448570635
Sn 12.762268398274662 7.353236852216841 10.766369060931803
Sn 10.661389917818672 6.01807510028439 8.938259718812887
Sn 9.916437101039211 8.081743031302205 11.176069672169056
Sn 5.7953582399137336 8.292254322695618 11.17307927455011
Sn 9.518518807418571 11.171797697011662 11.278055860824548
Sn 7.657207067530982 6.493944634727011 9.47286127556891
Sn 12.306010282830238 10.387634623202295 10.589685346671791
Sn 7.822593471384746 9.35951556245653 9.025951779080913
Sn 6.430612155779186 11.253087683025353 10.831270796835746
Sn 12.137884413121272 8.645283357081956 8.020556284929121
Sn 7.242533392395023 7.6664817629874324 6.582284763087041
Sn 8.367944662416429 12.237101949106092 8.460833181788184
Sn 10.16522791267505 7.1788800449344805 6.174463707062228
Sn 11.376431410929182 11.621841057005188 7.9861416523810735
Sn 9.387532981350581 10.085914939097938 6.131565558481047
Sn 6.421853705056546 10.552634825710442 6.401890102868117
