16
Energy = -55.68392321 eV
Sn 11.462295349687754 5.88804576379294 8.69717022744139
Sn 12.517580081244178 7.912938321104497 10.691716106036885
Sn 12.34579304000452 8.426788201604737 7.407185580807363
Sn 8.886599282819756 7.0706993543438195 7.489038841394894
Sn 9.529974558447933 8.115703544322859 10.202864061108404
Sn 12.481915389193913 10.730971498435606 9.54509744999666
Sn 10.892535253273266 9.75563574699685 12.431742652825701
Sn 9.805623766137519 9.977146698709705 7.800234745193731
Sn 6.6043017104253945 7.184858399645483 9.723399790635746
Sn 6.544542352084353 8.995920094553398 7.188143541360611
Sn 10.895216058027641 12.700611972299564 11.517519933527304
Sn 8.572153861824836 11.218956150350518 10.643286760400743
Sn 7.480068421039923 11.839996784615215 7.857939825532935
Sn 7.380139465928566 8.743261894228253 12.223869004567844
Sn 10.703132973415407 12.850205865300062 8.467571359201651
Sn 5.817198190837471 10.138401456792966 9.975796414139404
