11
Energy = -36.80465472 eV
Sn 13.345098212394268 9.119574041074474 8.610571712440828
Sn 14.28300232140784 11.36501581002776 10.383656636479529
Sn 12.054770865405027 11.879794978603199 8.452666530342167
Sn 12.915669372463029 11.548195207766078 13.02327996888769
Sn 10.496114212114636 9.315180038204216 7.925506384029531
Sn 11.272304509194802 9.741595057671356 10.904111305572993
Sn 11.30466285475296 13.555776415332364 14.450484456934435
Sn 9.160547843080698 11.63239831331121 9.31076929869873
Sn 10.440885891924735 10.38152590385441 14.160919087563354
Sn 10.215532975106113 12.684108710113634 11.84732277773108
Sn 8.4964818557893 12.432197437774825 14.368845690405962
