19
Energy = -65.78814027 eV
Sn 11.441004177788045 12.762404629128183 11.076885229438496
Sn 10.624421336478141 12.335828801005457 8.170444984223481
Sn 10.941598844236594 9.374734663473413 8.191068364411622
Sn 12.973738099933131 10.281847917114348 11.181069168500011
Sn 10.56156825846277 10.489241712655597 13.104853440334198
Sn 13.063013992988694 7.854252409255546 9.417322259624118
Sn 7.511312446908746 12.535112267507937 8.20165498872371
Sn 9.185354542129465 10.843931727910887 10.274287427581797
Sn 7.501832978959335 10.021652144956235 6.8457324615213375
Sn 6.688197530284256 8.127693955852983 4.711027642501566
Sn 10.889585475741194 7.989840315017418 11.396954546006455
Sn 9.608219742706067 8.017943662516537 5.798672649164669
Sn 6.086881919407238 10.098214163747764 9.681568213821423
Sn 7.9097787957060985 8.904430794029231 12.09913537091363
Sn 5.024981395006785 8.14331942484554 7.275421187762199
Sn 7.003697240776817 7.172476518554392 9.327342342279655
Sn 7.3398522952687335 5.911144116070724 6.611450855083123
Sn 8.68170850441492 5.93435327765253 11.287886036735191
Sn 9.908335932711507 6.206226289668975 8.368254709039277
