16
Energy = -55.99830234 eV
Sn 13.312959724170577 9.412277555232286 8.579368495106912
Sn 10.178256517806505 6.624931850763048 10.755680631545557
Sn 11.033862485390143 9.634259190469393 11.346003761617714
Sn 13.726237741219334 10.749891910918075 11.33225469957895
Sn 13.385577715683851 12.484049757228687 8.856545328908847
Sn 9.453845200841698 8.157592820399978 13.375113038945221
Sn 8.146269510837888 6.8183162045059955 8.436525248219564
Sn 11.481395235727632 12.908008567837753 11.324598629735203
Sn 10.25199262189593 8.894355342849023 8.462106584286785
Sn 7.197557928292391 7.134218508971471 11.451734536481872
Sn 10.637273691627087 13.658285320649467 8.431771777424679
Sn 11.51149880885633 11.139125545382845 6.816450895792728
Sn 9.203609301782329 11.430608259939072 9.69063866340779
Sn 6.868117898689965 9.316194689789533 9.274269793543478
Sn 7.606794682720251 10.112226002640702 12.260624151152255
Sn 6.338039810957577 11.96661477607238 10.415089845501328
