13
Energy = -43.96074284 eV
Sn 14.983332556591336 11.316016460902302 15.757159503685822
Sn 14.13534972011243 12.345619338962377 11.612109926990149
Sn 13.70233442186802 13.70304046263846 14.472374166210642
Sn 13.049680892432873 10.48691814928862 13.723519312246795
Sn 11.235345276470316 13.953661931819976 12.452175272642014
Sn 10.796897916530005 11.322336649177378 11.017821490540026
Sn 13.093893340340777 10.637284722839155 9.21766394980843
Sn 12.339233458566639 13.752469980294299 9.484397236138
Sn 10.028379618308378 12.003048274777957 8.310292979616833
Sn 10.015096189199449 11.181427095547749 13.880054038130496
Sn 10.460371411179914 13.852134949416733 15.330484667835426
Sn 12.189424124828449 11.754042050406579 16.398464066909277
Sn 12.550673370728088 12.211179521794445 6.864678090043009
