11
Energy = -34.80925418 eV
Sn 16.173752507433584 10.538953719085129 13.260480833046257
Sn 15.39625000486409 11.927062396214064 10.647949232960759
Sn 9.753357866525125 16.29655985629356 11.331159276944367
Sn 9.789692792633168 13.546752734305231 10.88312311919387
Sn 11.929742499689116 11.073324765491845 14.152691027055832
Sn 14.3036530761469 12.75486256137856 13.46800163347318
Sn 12.562538295920358 12.446513960427442 11.084789586544032
Sn 8.459262315206912 11.380284368353818 9.454918494462333
Sn 9.514831855458175 10.922745523331836 12.280231782212843
Sn 13.606354137323695 9.793989664372837 12.084625742670568
Sn 8.177495031637058 8.920217835704795 10.859675637567486
