11
Energy = -37.60221851 eV
Sn 11.254698833361529 7.873399167256289 11.813422769790165
Sn 10.692049772087257 10.804345101608195 12.482637940836502
Sn 13.405459899297401 9.841549687790405 13.045648728404197
Sn 8.399166501705185 8.863885008017023 11.513198739104327
Sn 13.504023185321646 12.499022249938086 11.494896004935159
Sn 13.113675509396838 9.694237492313132 10.032524037613678
Sn 10.164088487663642 9.267132628928733 9.034870955688026
Sn 10.70017588331846 13.723519451596092 11.9042013374297
Sn 8.40808546592033 11.584860188401349 10.436678715092857
Sn 11.450078569982303 12.235313974561606 9.211236205951883
Sn 9.186832824813848 14.197670161741728 9.426426856148803
