16
Energy = -54.54617291 eV
Sn 13.177278783076126 12.735176372144949 10.383388660529054
Sn 15.60604461881128 13.85166822533842 11.823199707554979
Sn 14.70899507050822 16.062752147462124 13.556149685879667
Sn 12.519183544593082 14.216674131957523 12.914371154222248
Sn 8.832728144927096 8.753854123861824 11.600980732171353
Sn 9.834446631647658 11.924179822082557 10.780928422911895
Sn 7.141518470728306 10.757513932709308 10.080065225717453
Sn 15.05516972029148 13.436917672271456 14.881077130969565
Sn 12.537610781163396 9.70230396654791 10.550268822100653
Sn 7.3966755210761805 9.794427271220643 7.343666981964677
Sn 11.951122130894948 12.130255155745132 15.11874406939991
Sn 14.506362507916824 10.631656952370658 15.60623800569323
Sn 9.079013892566254 12.246451872970775 7.965862592921544
Sn 9.899035810072725 9.416129429609436 8.870781595474632
Sn 10.903749758331625 10.332839507947469 12.984657284944236
Sn 14.256732543752713 11.231604102850996 12.760419432491997
