18
Energy = -62.64417316 eV
Sn 11.690228172140076 7.249291336015437 7.554890742323902
Sn 8.853026202517697 6.173252645091079 8.247821497773943
Sn 11.115216264210991 6.771446714460456 10.566944018235713
Sn 9.094563883476496 7.891240343835641 5.690539987224701
Sn 11.343643624954389 9.945486690066092 6.191774143316736
Sn 8.291672552104936 4.991212219087042 10.881732832460319
Sn 10.377707694316438 12.167765427192117 10.761902763000345
Sn 9.320440035264236 9.410150631369838 8.935642897147224
Sn 12.355655714175013 10.080456398268318 9.212980304736806
Sn 8.260753772437777 10.911986029937337 6.097503303736105
Sn 10.407408203177958 12.47157345505604 7.72987967587402
Sn 6.459712243093788 8.634272107030164 7.241804082903259
Sn 6.016650403793522 6.67206982583631 9.617878316719088
Sn 8.219069025717035 7.8192798857481725 11.645152876007215
Sn 10.870776098334952 9.456013793942097 12.086331977462532
Sn 7.488985557013508 12.052378707927959 9.012917106002279
Sn 7.9560615247978195 10.876325187428764 12.049171545847232
Sn 5.836431974799383 9.650256639456776 10.226619493686748
