11
Energy = -38.04567512 eV
Sn 13.983130818966258 11.279565850067009 11.303014653973966
Sn 12.510056444756989 12.410030842234036 13.986184985776205
Sn 12.007113356543558 15.295712111622457 13.749446320243354
Sn 13.268539805578715 14.204782572192196 11.256699082119411
Sn 10.081829418534483 10.569162260932444 13.40327522563553
Sn 11.265048461453063 9.256576654733921 10.908120297958567
Sn 8.955202320456689 11.351909640125028 10.660190650642999
Sn 13.19397809355365 10.155066577553477 8.752827485327261
Sn 11.549740170135818 12.395680843884396 9.572983473945904
Sn 12.968511852647193 9.516629584501953 13.509917685450413
Sn 10.165311807179064 13.490480855855479 12.32720500087882
