10
Energy = -33.52437185 eV
Sn 15.939526298664019 12.091740480164573 13.039519018194582
Sn 12.218395080838418 11.51053949559938 10.370682898839213
Sn 9.88263667322765 10.54524419616219 12.673398478070595
Sn 9.554129521522196 10.684769935756096 9.63610652327103
Sn 13.296990390014988 10.86622566406502 13.188312067776565
Sn 9.254081322910546 13.137938894393121 11.12336182948849
Sn 11.657052187782723 13.320569739019204 13.543329524595272
Sn 13.885411897399278 13.66980873261971 11.599902296521288
Sn 8.727914563244498 13.078637890815124 13.896999708093203
Sn 15.022017909289191 10.789316938246987 10.539903857465298
