13
Energy = -44.65188491 eV
Sn 10.40822126002638 12.909157507671381 12.50661403275597
Sn 7.781169842863059 7.517119111121261 10.0360825
Sn 8.465807256141547 10.333546898885542 11.655873919516527
Sn 8.465807256141547 10.333546898885542 8.416291080483468
Sn 10.40822126002638 12.909157507671381 7.565550967244022
Sn 11.964779787435486 12.819176018054879 10.0360825
Sn 11.006017279689758 8.86428965090782 10.0360825
Sn 11.664084777549107 10.232477259876081 7.583756822700122
Sn 11.664084777549107 10.232477259876081 12.488408177299874
Sn 9.717400339787522 7.630792409303963 7.571231230788206
Sn 10.471137440786732 5.976877464142678 10.0360825
Sn 8.73494089946206 13.079662121545907 10.0360825
Sn 9.717400339787522 7.630792409303963 12.50093376921179
