13
Energy = -44.22321614 eV
Sn 14.616607017929983 11.814622214284016 9.714616868509523
Sn 13.777828669580847 9.284221579519611 11.322597818079469
Sn 12.610691594560551 9.940082620011703 8.61791600038084
Sn 16.047036611170373 11.074689576149161 12.11031913274903
Sn 11.239573370436698 11.550121079501823 10.599375369539072
Sn 12.972786436434628 11.44247664096435 15.40353723476584
Sn 11.25718095047949 9.98687444663597 13.275964297006194
Sn 13.465144641886594 12.432717232829098 12.672066014151754
Sn 9.159543114753216 13.581704171520533 10.165603205058426
Sn 11.752902416632507 14.669891922170637 11.500531580054094
Sn 10.842771492260637 13.008595293578173 14.328757805807701
Sn 8.640465711454452 11.599272047522941 12.500186848837425
Sn 9.020810408103992 14.697424061290858 12.970263127005977
