10
Energy = -34.69096132 eV
Sn 10.704547675506776 9.474586151497657 7.308211028769759
Sn 8.665291403270931 8.279994947154227 9.335847548698991
Sn 11.680029236951269 7.984753110583727 9.810234723258567
Sn 7.415640378251521 10.213669751939046 7.604033375941257
Sn 9.422608828965082 11.825290520587188 8.889799525765019
Sn 12.320028465477105 11.033638593830146 9.42765571643386
Sn 7.434176590660284 10.622357077124457 10.964736116425536
Sn 12.367036430659816 9.735661769482471 12.185054572117247
Sn 10.139033972283052 11.75804930726742 11.8706675542699
Sn 9.491831367375646 8.712223119934857 12.243984187721516
