19
Energy = -66.4923187 eV
Sn 13.264938050344103 14.711391897287037 7.870802957426017
Sn 14.607873377954078 11.92361054224486 8.811176178514444
Sn 15.301050276848853 14.662337345930235 10.07815149558588
Sn 11.448181986598772 12.473970987759197 8.328139330480193
Sn 15.366935009851478 12.17011214159722 11.847587681495499
Sn 13.557183109273206 9.911334860520277 13.574389632249666
Sn 12.569210135869785 10.962728178707996 10.795732855138246
Sn 12.145117016831366 15.383617552587195 10.530278682823102
Sn 14.139618409689717 14.992869350447107 12.83147442698669
Sn 12.256939902410378 12.828047395511742 13.193354739173325
Sn 11.886648695244245 8.121666749964639 11.400494358576161
Sn 11.375399543906275 11.17431691427053 15.611995050547408
Sn 10.045028073723458 13.066800662418467 11.047819905926685
Sn 9.230521133146231 13.03542459293543 14.042601695414227
Sn 9.722484473991685 10.03414019969605 9.857688862723347
Sn 8.899438144933692 8.235300885658605 12.316462983922571
Sn 11.111511614888348 8.247823576069337 14.444495076014865
Sn 7.734428459166772 11.162227417895235 12.021402485245424
Sn 8.617902061618656 10.119428862946565 14.78164476984081
