10
Energy = -34.68902008 eV
Sn 10.946544443818972 8.438062337985777 8.06416321641314
Sn 7.970616313116566 7.899573912155715 8.408021175430786
Sn 8.616433672193908 10.831353960711686 7.882332790720367
Sn 12.460239075934041 8.930620563735177 10.701568088408372
Sn 11.430798723171009 11.316491393434694 8.982902626014305
Sn 8.972515529972922 12.560897521340598 10.408842672288149
Sn 12.137763608791923 12.122561302584247 11.661513046928242
Sn 7.415130222216657 9.904881094852671 10.62833057415747
Sn 9.752839311018798 7.498282438908626 10.822345788391026
Sn 10.029333266767216 10.229489641293005 12.17219418825048
