18
Energy = -60.87276154 eV
Sn 9.779233757370426 13.766935360816282 11.577866452043633
Sn 11.610142415390287 11.498821364280166 11.806529776877383
Sn 8.85298629348134 14.994184628052611 9.13740388324232
Sn 10.22136305526631 12.645866487981102 8.152095580924696
Sn 12.72178293726742 8.553959555714998 11.347547541950329
Sn 13.089436993864163 10.155591192998337 13.923421413414314
Sn 7.299367558910383 12.496411164826714 9.689027355096929
Sn 11.800674310604563 10.143073602870881 8.842240472911582
Sn 8.354137443872828 11.1496195589158 12.243931836900144
Sn 10.39689265008923 9.218361774652358 13.657764398465
Sn 10.421961435310887 9.271103499033789 6.09316209701369
Sn 8.584374819765953 10.100045000613788 8.341595225690176
Sn 7.789795969776922 8.281410982440613 12.693816706012703
Sn 11.685859020784175 6.962216030331405 8.011187420194547
Sn 9.972344915930847 7.870724294405804 10.40816511008566
Sn 10.382588813238666 6.335349358967771 5.396384032299503
Sn 8.554446114671215 6.8546194765778345 7.4610797649528635
Sn 6.991542053554216 8.114115235400668 9.703791727134385
