17
Energy = -58.21098027 eV
Sn 11.371248069732024 11.556874793093867 8.23838856132304
Sn 12.051349547617551 8.085775900835133 12.017221436490177
Sn 8.39156492630807 11.898237189291239 7.090907037443679
Sn 10.811810716756636 10.614475369569034 11.18574627911166
Sn 7.777036639527736 9.911542772466834 11.960073323389686
Sn 11.868654388431445 8.501798822637303 9.137043389403145
Sn 8.48394356111693 12.153056525959379 10.070878107078265
Sn 12.913117895103703 9.369769370867266 6.596457112533905
Sn 9.419682024802503 6.754968654450175 11.59099256177278
Sn 10.423353775871552 10.329862112507017 5.342137022213487
Sn 7.245237872493051 7.40709748633461 13.496835233210833
Sn 6.211087809028862 10.307179433201762 8.990301172792789
Sn 6.289211830741669 7.391113179016799 10.795601693046962
Sn 8.692963578821534 8.0574050871837 8.947120210172436
Sn 10.490010038376766 7.391676332476722 6.517910019299042
Sn 7.761303863760953 9.013357385470007 6.178298653880554
Sn 5.790175398813122 7.428747678410366 7.907527172114626
