14
Energy = -47.79711185 eV
Sn 9.340607537883153 12.269862856509777 8.637463544630688
Sn 12.644023272903148 12.0450783226637 9.467511685084244
Sn 11.358617495591185 10.521060706322706 7.009074646761912
Sn 10.54704697287714 11.539744523853788 11.4553861134236
Sn 9.455283027122865 8.462585476146206 11.4553861134236
Sn 11.097102336820216 8.958926889755451 13.803161303108883
Sn 8.905227663179783 11.043403110244546 13.803161303108883
Sn 13.642877980294355 9.284745880478114 8.514239084827487
Sn 10.661722462116847 7.732467143490228 8.637463544630688
Sn 8.643712504408823 9.481269293677297 7.009074646761912
Sn 12.477691921492767 9.17428694062739 11.121318639409374
Sn 7.358306727096855 7.957251677336302 9.467511685084244
Sn 7.524638078507236 10.828043059372614 11.121318639409374
Sn 6.359452019705643 10.717584119521748 8.514239084827487
