11
Energy = -36.81735986 eV
Sn 9.867777613475882 14.24913340208779 8.568886815423127
Sn 9.238115177986588 9.75714589487979 14.455294162443263
Sn 13.049614374254082 10.744853086727275 11.161296849289414
Sn 12.766216452629985 7.878689505560171 11.43145717996732
Sn 12.028762345449662 9.132539396094403 13.971750021340455
Sn 10.035335867864312 9.190955123890808 11.633045514592025
Sn 10.305147176166985 12.200828657986259 10.424106804014656
Sn 13.046738358930707 12.932998409426933 9.086848563791722
Sn 13.227572352338735 13.480738257631216 12.339639702328874
Sn 10.735039971651213 12.029252285698398 13.346981723711558
Sn 11.830053730100564 15.344276369819523 10.370187572239471
