10
Energy = -34.68875924 eV
Sn 10.80821145688858 8.234587518593717 10.864809619964262
Sn 13.136894110419377 8.599465925953702 9.21599895595256
Sn 7.953395427456942 9.103893994966164 10.215871792130837
Sn 10.01182721518953 8.860992763825802 7.92380975751737
Sn 11.846604726460374 11.162891086681315 8.936206260035176
Sn 8.835649857141362 11.621171745285185 8.56323922640229
Sn 12.590309845910165 10.575957562973366 11.895977609999713
Sn 9.684766141051576 10.280144403598838 12.84796444080577
Sn 7.6436324429406985 11.925533817938565 11.33675867956928
Sn 10.566295737165113 12.794780253384422 11.182410198813104
