17
Energy = -58.56154458 eV
Sn 6.871733055822737 13.241140299490322 10.866324748479736
Sn 8.540182278835 11.209931525208319 12.08450732881085
Sn 8.527805309541522 12.545560233827802 8.520996340077211
Sn 9.454956806464672 9.040027421767439 13.91189768690794
Sn 11.076706396867264 11.03806058721337 10.484337363355577
Sn 7.503121209748487 8.208148896394041 11.635988076390522
Sn 11.4860336965474 12.392430957837409 7.728069322202782
Sn 8.912371460949384 9.423506549556016 9.117173410936713
Sn 13.601030281383238 10.514174136719364 8.84522786779666
Sn 6.167244215698121 10.537283904326559 9.894224591533122
Sn 12.27495781939624 9.20266243181372 12.594387289417096
Sn 12.059505474967278 9.558296548117635 6.485532698868734
Sn 9.190169524346155 10.645036939196945 6.204347354426773
Sn 8.8960246441181 6.37036521259813 9.633711824075046
Sn 11.75146616607201 8.087708150462472 9.547459804957043
Sn 10.534777556051 6.8358727390409575 12.130924844029105
Sn 9.726616803889096 7.660432988276844 6.8021805766502075
