15
Energy = -51.00684539 eV
Sn 14.045807187567245 8.79896080865767 7.704399053362716
Sn 15.43138976725866 9.870657553451947 10.181805955336557
Sn 12.630166527051049 8.329624794861314 10.243856557126115
Sn 13.165499689376645 11.404541726397971 8.66908124577721
Sn 14.604914310104135 12.659043576627338 11.006185677708409
Sn 10.427914681982857 10.61184449410014 10.373977768969993
Sn 10.980844347545261 8.926672055353743 12.701576980095709
Sn 8.415190459226324 12.865586600388944 10.633200198111751
Sn 11.221385104773377 13.557536598620667 9.670344251921955
Sn 9.093295164739173 11.303147298695974 13.939961675033954
Sn 6.54328634884126 12.002721050145333 12.774498212581468
Sn 13.605647553610963 10.260540081837465 12.64502575722244
Sn 8.395278142749534 14.248465041170013 13.417047829576239
Sn 10.698917971208852 13.545108222065318 15.0630921170049
Sn 11.762962210201197 12.810057572506555 12.447583500144072
