15
Energy = -50.65139568 eV
Sn 10.753463083869171 12.831627789989207 14.779575892813153
Sn 11.897167019878308 15.687038940752624 14.948514508230826
Sn 17.5503146394522 15.186472950901893 13.986556358891372
Sn 9.626803168103857 15.425865207052421 13.27373658501815
Sn 15.840929126937734 15.258228799316983 16.294373588383873
Sn 15.585317459096908 10.82407524668597 14.122483345451563
Sn 13.722568842299475 8.987969222375497 12.6545273709294
Sn 16.20030873624473 17.84297742512302 14.482123493752507
Sn 15.22857875015013 10.759017013171157 10.81939595346756
Sn 12.838952109128906 11.714851668685464 12.6608393996585
Sn 15.605479340048229 13.241308584183152 12.366501177957398
Sn 14.41595686604612 15.852451450146242 13.375929716009844
Sn 13.899214017581285 13.142006867720989 15.283290506350028
Sn 10.72921713991562 13.430546508176752 11.62216120083328
Sn 13.877865748575713 17.42432565310233 16.44958945046595
