11
Energy = -36.82450045 eV
Sn 14.77655516398873 12.040535721660232 9.289882649109153
Sn 9.220354204585812 9.451260910643448 13.710026928655875
Sn 10.415817460155278 12.198180678745905 14.14891832524904
Sn 11.85062199487647 11.236061220774655 9.02345737817854
Sn 8.250753141119818 11.650633432593592 12.044627602775885
Sn 13.224677417616485 12.228107878651581 12.427983741858728
Sn 8.814020527469706 14.370865239069701 12.845335202965712
Sn 10.866519269190434 13.34224469653227 11.010111581653033
Sn 14.061076797136117 9.626831720507706 10.89211501689344
Sn 11.148701296886761 9.978267524493283 11.621909246439388
Sn 15.963598219386483 12.398520898175883 11.878163362556453
