19
Energy = -65.14891298 eV
Sn 7.65642697244385 12.757306996704427 9.794252838502013
Sn 10.162354813308436 8.2924863192624 7.061799106093841
Sn 9.855476968739003 5.538815206620781 7.953510818932887
Sn 13.075447226087576 12.133267910775073 10.937132102998417
Sn 7.701135233289466 10.155941915088095 7.901439127560675
Sn 10.030046107471936 8.712209331355066 12.025932297180741
Sn 10.26456611853113 11.29120273364123 10.107075667250689
Sn 11.306625304766465 6.495252161106646 10.377418700894902
Sn 12.904033737078006 9.464539873597527 12.830215916012765
Sn 9.308856842092615 10.562158029630384 5.393372801875173
Sn 9.630142582184996 12.81670230014405 7.377117681354931
Sn 6.9677593951738235 8.277057050389603 11.886933813069454
Sn 8.372758815124913 7.598326462767464 9.436106884831405
Sn 12.407477520207614 9.171836357328457 9.757057040559351
Sn 13.596838334564353 12.03516858088678 14.053814820081854
Sn 10.910153698120977 11.997828213887868 13.173045252191807
Sn 11.949699866476024 10.881262524224702 7.295108546905376
Sn 5.692667480848079 10.404911225894121 10.003939816775848
Sn 8.018315597105614 11.12483731597237 12.385939561569781
