15
Energy = -51.45105088 eV
Sn 12.523429329385625 11.96571000936178 7.968637529961598
Sn 9.65331806523892 11.527884372628852 7.407915261285158
Sn 10.112719538728832 9.155046290740374 9.286868555964997
Sn 12.616879536916334 10.51606523083205 10.535165731152686
Sn 10.61337635768337 14.010068320364267 9.047451648519425
Sn 7.882020385936046 13.761050410213572 8.002012908646888
Sn 8.330043142055677 11.800794594900832 10.256476807851852
Sn 12.081815602303385 7.6648633833538575 11.591653560232885
Sn 10.850320253541625 12.595041772356101 11.816880988716015
Sn 9.787319553664654 9.683558782762153 12.305043071776533
Sn 12.36794710418969 8.751631918412986 14.389875723240351
Sn 14.687061458445099 9.224538898912584 12.218958766501947
Sn 10.535082937908284 11.204899126320345 14.79551042632586
Sn 11.86238777578489 13.919946524610998 14.177522022010796
Sn 13.425137063205632 11.547758469217962 13.528885102800741
