14
Energy = -48.38289816 eV
Sn 11.993258913765446 12.166668038311013 15.663007471879904
Sn 13.836841548170806 13.663869919768429 13.448965369055431
Sn 13.868101060356125 11.964366635834436 10.88860669550217
Sn 11.036282858650369 9.595877271299488 14.371222915463747
Sn 13.968691087742648 10.218040902871563 14.163771136770345
Sn 13.038068111727029 13.41181556880595 8.363349969743503
Sn 15.10569269882089 12.33866309376536 15.698505510882022
Sn 11.763314773951729 10.690701360542988 8.646421269417583
Sn 11.8028179279286 14.550849625121996 10.752940797272625
Sn 11.21408748811462 12.241263656212597 12.700123126970107
Sn 12.10696450551258 9.482670535090502 11.425975487964255
Sn 9.884267665284268 13.126785478729822 8.61677611098779
Sn 9.3395525090677 10.8184647477397 10.645789290755946
Sn 8.9644702765769 13.758192980168621 11.446428425265779
