13
Energy = -44.21282455 eV
Sn 13.020323068774793 8.661246102323295 12.279032386408941
Sn 11.097632599280907 10.670207171296559 11.43520101183075
Sn 16.022954891458234 11.806589141481735 13.821904420102932
Sn 14.366962346002216 11.181573630901713 11.487846493407302
Sn 10.467538533368955 11.132885831056958 8.518686355842059
Sn 13.596973202831173 10.370273928041028 14.607764400754018
Sn 12.814133846861102 12.69195604227909 9.438807992678404
Sn 11.98547431578036 12.454906203913346 15.918999964532352
Sn 10.4740457446135 12.782730824897932 13.4447302195557
Sn 13.65545249272184 13.575756927491023 13.74149002590863
Sn 9.610637827336717 13.279110621459099 10.182188424252686
Sn 9.411799911957054 15.319596595230996 12.254383350734606
Sn 12.153112938019767 14.730318466651369 11.464335676490245
