12
Energy = -40.91659077 eV
Sn 13.861463024817839 12.325731159879746 11.529141994126254
Sn 15.249645127402616 9.771224615063332 11.810536452879733
Sn 12.144336511329719 12.328518275354213 14.279775036062038
Sn 12.649788990235406 9.511246010106976 13.073009700405505
Sn 11.495530525291914 14.10662726228237 11.837200650942926
Sn 13.138968027300512 9.567089758641417 9.825630121424942
Sn 11.011448329198883 11.694558684809824 9.744039190927262
Sn 10.580377706116474 8.641718790514977 11.049779348212661
Sn 9.782716069366415 11.63923143879424 12.785706862596188
Sn 8.595064318986863 12.13406440412201 8.24382244956292
Sn 8.092785889882718 10.319871685334276 10.709700621560946
Sn 8.594095130529999 13.596547742987669 10.803426897070427
