14
Energy = -48.8885808 eV
Sn 10.329664789042818 13.077221012883824 12.393154990920815
Sn 9.250476899195856 8.866333960056199 5.812073581219893
Sn 11.194731275814114 8.770248450527943 8.127873012251534
Sn 8.057760152366813 10.503400459062318 8.009958848263706
Sn 10.779000560729894 11.389596640163726 6.6020276792497885
Sn 8.488956986972752 7.364879072187125 8.359452442666706
Sn 8.856454229595562 10.499630272163673 13.517563375764977
Sn 9.273916854934264 9.01055010906738 10.751547024974299
Sn 10.7789243636933 8.063379058759184 13.13136490592378
Sn 7.976249368855847 11.812200346809233 10.8899152159428
Sn 10.780199323234221 11.64998809412669 9.60179201303043
Sn 11.911338269765572 10.827874508201763 13.788287025184344
Sn 12.487363370040459 9.274781366882566 10.9773638573681
Sn 13.131403555758386 12.186356649108673 11.334066027238691
