17
Energy = -58.6717006 eV
Sn 11.766246625917903 11.326281139658962 9.97288497913687
Sn 11.225635903467401 8.791872877117768 11.950102052278819
Sn 9.586980916405095 11.395173212120516 12.114395779270199
Sn 9.039011070878857 12.69886265607879 9.228482570026278
Sn 10.387137316660333 10.977574381004754 7.1998026060245435
Sn 11.66092291838645 8.499665053072306 8.889753593775174
Sn 11.120846132013664 8.346294931378342 5.7995340293141995
Sn 6.785828913632198 11.417588512590303 10.908354783343192
Sn 6.788949191388625 11.006267986952556 7.752569239172301
Sn 10.065906060138577 6.266027767823215 10.467673035038986
Sn 11.796226318174767 5.807681672109651 7.7820596599279135
Sn 8.225922147134067 9.20884393904256 5.758417638416119
Sn 8.194639769488095 8.686252033781747 11.452995230549327
Sn 5.42111139656824 8.89653813298221 10.016348542984328
Sn 8.99982551053283 6.705106898967442 7.524342597774583
Sn 6.120986195156284 7.826517148717316 7.317748684278574
Sn 7.001843573948196 6.2557663533204195 9.968932573397153
