19
Energy = -66.97626741 eV
Sn 13.0014496836086 11.517776041068503 9.356843124134809
Sn 12.348197406014844 9.485722324600488 7.3676233719200575
Sn 11.59844235362329 14.125322919334398 10.972316852574798
Sn 13.670285776749699 7.43071404785686 9.15299511460987
Sn 15.415001568217429 9.749186046402823 8.316374400582664
Sn 11.581935382535447 12.269394985269134 13.412948212878213
Sn 15.596920232693973 11.532668829384408 10.821697214178283
Sn 8.865686621489038 13.604847120635895 9.424691097266216
Sn 11.07394214436742 8.942805579893104 10.115172398063478
Sn 15.640314029769637 8.530645465992762 11.30380152907719
Sn 12.814626909142893 7.24231413638043 12.04121935692485
Sn 7.054642137239158 12.750822840497518 11.936531422914788
Sn 8.815088353234517 15.380255349916565 11.77590022981553
Sn 11.002990238778121 15.30240167014993 13.847978592969154
Sn 13.198796022505922 10.157613176010896 12.131283383694392
Sn 9.766215006372969 11.442770501837833 11.222116504730336
Sn 7.902460017702077 14.228439171589075 14.493281393664487
Sn 10.261346606591134 13.05211105434619 15.925503642340361
Sn 8.63596616460042 11.154812166143804 14.063068990748105
