18
Energy = -62.17201869 eV
Sn 10.9664345412553 5.866756164333993 11.088062896634078
Sn 9.952458173536762 11.989546551926667 11.943874172541083
Sn 8.82536124621644 7.039077648585931 12.841223582755653
Sn 6.825882060176151 10.717827335757924 8.836179303677968
Sn 12.755625535694021 11.087120584153135 10.769413877375339
Sn 9.008850282744563 12.158606629954644 6.961964577491816
Sn 11.289621611065463 8.750425784375652 12.563410092659048
Sn 10.78720200791018 7.029937144851064 8.17407296272605
Sn 10.56817637782444 9.997386780777497 8.922407000801364
Sn 8.175381457733721 13.53621143808218 9.655706459293175
Sn 8.525979714711399 9.309593624130764 10.94443228583078
Sn 11.13059552470553 13.01112589770414 9.132150252377029
Sn 6.923290956736724 11.69877838461349 11.73898564683285
Sn 13.003086548250897 8.021746424341218 10.062747187763872
Sn 10.237354675916512 9.205408681642409 5.982025145000767
Sn 7.274834238537321 9.695947454930623 6.072374186501103
Sn 8.078909421366554 6.967988937628994 6.9076690345881415
Sn 8.058686671506068 6.502957827813677 9.879486890026968
