10
Energy = -34.6894892 eV
Sn 9.910758656560954 12.746376565951742 10.454014731108767
Sn 12.497988470160308 11.219343236454414 11.172533536336502
Sn 13.109837088558136 8.832325569684322 8.85790669423758
Sn 8.150677878319359 10.65286436173473 8.50988994992915
Sn 7.346632626681538 11.347952055260977 11.34671761627422
Sn 11.199838126257792 10.931446079531861 8.36340617606544
Sn 11.216851395680866 8.377332438278655 10.983176664773515
Sn 9.9291574073081 10.561211551800186 12.709471749479542
Sn 8.175763494330567 8.468561171828885 10.761823083367991
Sn 9.860913137991819 8.12535756035781 8.193991939195097
