18
Energy = -58.4926691 eV
Sn 14.607771995653032 19.536109641542 12.04519655365368
Sn 13.60620110232268 18.795609248945414 14.726651429636409
Sn 16.244941500035452 17.401244697262097 13.361796764686186
Sn 13.188453700636579 16.97336992262744 11.877029427242999
Sn 11.041227255109607 17.026289596118808 13.978791233450332
Sn 15.818512506933526 17.49271860145947 16.317113410247366
Sn 15.293448727971992 14.775131846444614 12.046155783984089
Sn 15.18874893436974 14.79446710122867 15.150197089036933
Sn 12.564599892376739 14.321099199234979 13.742189142726753
Sn 12.831522272252865 16.413038536095467 16.319465370124107
Sn 17.959026213903204 13.274557772587139 12.806021783460036
Sn 15.98684273652426 11.791140573620686 11.271828760813847
Sn 17.240110195415692 12.585035949195605 15.651861965652675
Sn 16.765735738994746 10.465158332700875 13.73300063869788
Sn 11.969362235642615 10.419044269567351 13.874912762989704
Sn 10.397869685945004 10.665982319215958 16.5091125659456
Sn 13.318738365900941 10.87077263494153 16.591801274204837
Sn 12.053040428026998 8.113063880925539 16.085146314295034
