15
Energy = -52.9348239 eV
Sn 7.843236289101861 9.561239876700043 8.566667493490572
Sn 7.9831772516193595 11.364174601373618 12.611366423956783
Sn 10.620241376259626 8.006852795389058 8.356073730361796
Sn 9.547406062025404 8.98867171061991 11.231811114738427
Sn 10.6110038695214 11.170149649474528 8.928857497502754
Sn 12.736852447295645 9.84990533148274 7.32266334626546
Sn 11.078841849760495 11.60516155373576 11.986554810635303
Sn 13.576507241523585 7.815256725163505 9.556226416325618
Sn 11.07780374604648 6.462670572853015 10.87261352568521
Sn 6.307263993046976 11.92420942662928 10.076875592560663
Sn 12.507597373664922 8.783299888081622 12.291242214886479
Sn 6.573686080871738 9.01669001712975 11.218456702668172
Sn 13.523358069798832 10.853633532370555 10.11752993281892
Sn 8.991402729492124 13.4201303732765 10.422017260903747
Sn 8.218321457285136 12.374654271093101 7.637743855856809
