12
Energy = -40.33733355 eV
Sn 11.569566914096486 14.632354367738266 13.244151209614605
Sn 12.770089179192565 8.647057318472498 9.330299864984065
Sn 12.190913322858057 9.609099307053487 11.947161568755137
Sn 14.294206567459687 11.071982121827684 10.015193530603119
Sn 11.404566783288455 11.62307504948211 14.185732475808996
Sn 9.213305598596412 9.725783753184311 11.992897027656113
Sn 13.95231614760209 15.394598970150401 11.67057916381798
Sn 12.47826695037669 13.481966054522358 10.205083407379757
Sn 10.785862467453892 11.005812740635301 9.510718182565766
Sn 9.568589426972842 12.834909147710073 11.944320195856976
Sn 14.023970870710635 12.504573959230148 12.755249025013448
Sn 8.484222398862203 11.44026742456502 14.311985127515781
