13
Energy = -44.58876462 eV
Sn 8.697131254167022 12.040932211912075 9.565525690327648
Sn 11.017354418814977 11.365115402694773 11.609585277514533
Sn 9.646883713774622 11.582779674969021 6.595834752048124
Sn 11.92299488352813 8.473249550084764 10.110260090300175
Sn 11.680465223564513 11.48492405087505 8.785568570530346
Sn 9.158726 9.158726 10.938264814372568
Sn 9.620320745832982 6.276519788087924 9.565525690327648
Sn 7.607801225357323 9.481340796314306 7.395812220716197
Sn 10.709650774642679 8.836111203685688 7.395812220716197
Sn 6.636986776435489 6.832527949124952 8.785568570530346
Sn 6.394457116471871 9.844202449915237 10.110260090300175
Sn 8.670568286225382 6.734672325030983 6.595834752048124
Sn 7.3000975811850175 6.952336597305228 11.609585277514533
