14
Energy = -47.44095607 eV
Sn 10.151436941196588 8.771631573568316 9.256802629067037
Sn 14.164881971257607 11.691644197367669 13.35462554210125
Sn 11.338294936012693 11.25108709563374 7.703187451840548
Sn 9.170181087848876 13.064206223172958 12.224358424973914
Sn 8.848591941601414 11.596821517417581 9.535071042042345
Sn 9.340755257043368 9.796052577776813 12.187450128846331
Sn 12.626354583520802 13.219450883098476 15.843556029762857
Sn 12.150220013512964 8.592292433319027 11.7568618493616
Sn 11.254365847928044 11.315351787418043 14.107747446268672
Sn 14.592469651650681 14.578898611911828 14.130462316689233
Sn 12.07021967959866 14.03247642556565 12.74981498991453
Sn 13.181873642189672 9.12264561153441 8.921697764312794
Sn 10.955247923432868 13.840029144690027 9.706563160973802
Sn 12.243074031001424 11.381300559616346 10.767416906474827
