18
Energy = -62.38006938 eV
Sn 11.265610497500985 13.12046691256549 10.721105839536365
Sn 10.19970778878103 10.303754089365325 10.474935451549893
Sn 10.352894529868585 11.398668912506158 13.336334674834509
Sn 9.704423844883221 16.93450083595059 11.770066737289625
Sn 14.265772303020025 13.635496044492877 10.848171427677316
Sn 9.44679335778242 16.850427435756423 14.92085622063685
Sn 13.232471674524845 10.748038268429617 9.616132395065458
Sn 12.616691374442606 16.00216351286742 12.083299470827322
Sn 10.245800193026794 14.431841754054435 13.434360930013378
Sn 11.716616094466609 18.335062980121517 13.680828078990013
Sn 12.436848831956667 15.705395628042666 15.251753597457048
Sn 13.155178591926665 13.112448829719492 13.549982949443327
Sn 12.233865886250758 8.915927931069573 12.05983960855691
Sn 12.910362147840809 10.360257273821238 14.754728010328327
Sn 14.578216906495406 8.055082151462605 10.422843046216265
Sn 14.511450834617678 7.774407245579126 13.660065768186401
Sn 14.950891696667043 10.682725245917279 12.218107733050786
Sn 16.96058662638461 8.551700227252088 12.063883414532858
