19
Energy = -66.00473241 eV
Sn 7.7341587006403545 11.566066046122437 13.381860201553305
Sn 11.110503372338886 7.817562534947753 11.926935603295975
Sn 10.508813153469752 10.598174308375606 13.272775565047121
Sn 12.998602806060473 10.297371540814844 11.866368386043902
Sn 8.562486424451146 6.094989438202853 11.861961155040722
Sn 8.115522538994298 9.035451427312653 12.002780925793317
Sn 11.899508324846401 12.629333218696171 10.252298484148378
Sn 10.881109263394528 9.675714925391134 9.480927538138681
Sn 11.052645921656527 6.55405454701274 8.96727664622146
Sn 8.934264123821468 12.361322200996028 10.75789875653494
Sn 6.489478781571391 7.554642834876472 9.799838330438618
Sn 8.003095109526697 9.955382457577501 8.944963006404768
Sn 10.503640272981661 13.5710962926004 7.579898467075326
Sn 8.549767031890129 7.591732973954658 7.106465811172276
Sn 12.510951500885813 11.338030292530389 7.450973136155413
Sn 11.61594281018943 8.588348942234717 6.532837118417494
Sn 7.598162233706927 12.647613115594895 7.90519172678412
Sn 8.360361603337704 5.28355253107889 9.032809299188397
Sn 9.631549776497668 10.993589661637367 6.2267367855202895
