15
Energy = -52.42845698 eV
Sn 9.687310310212347 11.10744800208379 7.846994450116158
Sn 12.836359558199938 12.174853191409188 8.309614025883095
Sn 9.536488196492499 8.124374832424381 8.88464140087162
Sn 10.60162295144716 12.599312355231401 10.7233440781532
Sn 7.357524024675408 10.092046945236735 9.557031076225075
Sn 11.74264034620213 9.890456409478658 9.998686943959104
Sn 11.196937341717717 7.481420137500795 11.638152893548847
Sn 13.24893449740365 13.972012994812756 10.718082465522603
Sn 7.864970231360142 13.016151998370674 9.806813146272619
Sn 14.491348477613894 11.123887111960508 10.636182315333173
Sn 13.021546313377582 12.327153716171491 13.276008417850823
Sn 8.229174006404834 8.353374105076659 11.84406395204905
Sn 7.635856676533801 11.30344271874863 12.410143570432417
Sn 13.406392624451227 9.352667178014094 12.877131267684454
Sn 10.511290342696627 10.449794202268594 12.841505894886586
