17
Energy = -58.47864384 eV
Sn 10.675150439648801 6.123965014568527 9.371393505396584
Sn 8.4097552028311 7.208222510210645 7.971620844335101
Sn 12.737905402998067 12.18667340107763 8.106126126101792
Sn 11.42297648754264 8.966516272417309 8.21529396616694
Sn 13.629725007713613 10.136820337424473 10.19435396532414
Sn 11.133461576656785 9.11730418096861 11.336639200201425
Sn 7.5772670369246775 6.060479849772753 10.629473595547198
Sn 10.029791142630193 6.526197585812398 12.319731973954005
Sn 10.041134237115228 11.464347642863427 6.94658472610698
Sn 7.282610622478759 9.781480964733214 7.064586164909734
Sn 6.425236016709351 8.766740543997408 9.823291393343315
Sn 9.013153970731876 10.368648262718338 9.660388505458139
Sn 8.092561133694089 9.003583197006867 12.38532324699172
Sn 12.595163184788655 12.926055917084863 10.915773236244682
Sn 9.943359078200572 13.370849504134549 9.356933353420972
Sn 9.243270960771058 12.042917145822662 12.203244151948038
Sn 10.604566572108636 14.591953773458979 12.149464046450781
