17
Energy = -58.17484883 eV
Sn 9.076302734245298 8.206766779164859 6.990543872377468
Sn 9.634369124348401 5.818726362648645 9.504892528186819
Sn 10.749473004986834 12.30612288611316 7.437903487777673
Sn 11.383254072927667 7.078075306676885 11.598751623934474
Sn 10.80269827274253 9.567948057668332 9.656032807442045
Sn 11.739955563162537 9.454222603240998 6.781289420210167
Sn 6.996346507202933 6.762157989720867 8.723509017795509
Sn 7.860810021916388 11.613512514462961 7.161167000540894
Sn 11.75059954400688 12.413940926284836 10.328792399396098
Sn 12.205778683074788 10.100302269910207 12.361594663106267
Sn 8.635560805676704 12.654479448441204 9.965669303567324
Sn 9.37990358731879 8.976047774365385 12.886188124006033
Sn 12.210396404198761 7.048845277773124 8.585766122171206
Sn 9.858294470270764 12.085394623400138 12.784649106082282
Sn 7.851916276352584 9.443373155872662 9.664368824280686
Sn 6.21045185605743 9.261275746585596 6.918520273943342
Sn 7.1243332588570185 10.840833134560016 12.12751212145488
