11
Energy = -38.04631664 eV
Sn 14.484982425608692 11.712091688117674 11.620079671500854
Sn 12.369225493982414 9.805449529485207 12.609283373011854
Sn 12.257663092117589 11.115436789394096 9.699766032776255
Sn 14.491585176453514 14.471391636472573 12.790301049906848
Sn 12.29213627357021 12.840707862734165 13.858230365500408
Sn 12.155108530455909 14.07101316295287 11.054500027264138
Sn 9.520265531131765 13.272224638366477 12.503629616254134
Sn 11.325355439258496 8.443487313984166 10.266468382858477
Sn 9.890834577207698 12.95201967599644 9.482391340511304
Sn 10.116731948769644 10.857110509975351 14.291974299304789
Sn 9.314496157749522 10.465883242560057 11.292666472016556
