14
Energy = -48.89263363 eV
Sn 14.950917194638278 10.29306868035252 10.202945269887127
Sn 13.612363725437149 13.033376922752621 10.197818078895695
Sn 12.55100452920194 13.792659205341677 13.079095561289828
Sn 13.994026091231222 11.543223836458338 7.58737104532653
Sn 9.62920351815266 14.490178665332957 12.954474804115653
Sn 10.444776980697835 12.775422934938156 15.353413210287297
Sn 11.365876383609745 13.009743719109224 8.12682719003655
Sn 8.518575663937726 11.585839721235725 13.264401982181685
Sn 10.493865404463184 12.473263273189781 10.95172460157332
Sn 11.94609183351047 10.04474355889746 9.160402688319575
Sn 13.278271976920411 11.657736015142108 15.068030473848987
Sn 10.80225927385086 9.810583474422172 14.58797944389537
Sn 10.054175010768983 9.492229716501097 11.632423151910942
Sn 12.835810869327826 10.66744226176984 12.308561256966009
