18
Energy = -62.42144274 eV
Sn 12.473898765106863 6.742578036131543 11.292673117707977
Sn 13.33951701657978 9.725262500490127 10.973564830798471
Sn 13.159122355438539 7.836037766251998 8.536471924230199
Sn 11.373024260719196 8.969465169374615 13.172801396778812
Sn 11.136101968075424 13.273914669383615 9.382551386529652
Sn 10.483486285675951 12.232854517980293 6.550382557095986
Sn 11.611095836165907 10.373479819152603 8.557039176548333
Sn 10.569748620006482 6.114756600342049 8.930924831259079
Sn 9.903999115085233 10.463355451315122 11.10876981611029
Sn 8.720292668041857 13.144549988758753 11.250404249797763
Sn 9.418272051434363 7.056016582064885 11.745177542512746
Sn 7.693178688800181 10.831541699886246 6.761633877219046
Sn 8.267039422051159 13.520308386216618 8.189421488706202
Sn 7.3946967972868585 6.237584606254196 9.470492200750575
Sn 9.05106124769978 8.772342094258063 8.641706448705884
Sn 6.770201470633856 8.653545102188936 11.33577629880846
Sn 6.712951879916879 11.348268675998993 9.749651448091875
Sn 5.939170422548491 8.64677434352899 8.335638449789897
