18
Energy = -62.72025746 eV
Sn 13.833694126606227 10.567590384769208 8.181877004093002
Sn 11.732234879046986 8.30181863248621 7.608632427531875
Sn 11.281470237947486 11.311808512758384 6.660365875019141
Sn 13.426408405808777 8.128288104211741 10.140550786176258
Sn 12.038347219187406 12.848114158428691 9.2604023373451
Sn 8.961919387367445 9.309060263430691 6.203219814993387
Sn 6.585406999307848 9.487285531974562 8.187389038363348
Sn 13.915345545348218 11.074156663571323 11.079119350839118
Sn 9.573506202688087 10.680404743073387 9.036774261585249
Sn 5.8255550926369155 6.833639798277664 9.326475498103193
Sn 10.509454023485741 8.253245490016738 10.66806429361577
Sn 5.604632619806555 9.066124243239894 11.268372670967013
Sn 8.714792342648913 7.031516048973563 8.281573162679761
Sn 11.06350520555919 11.089518821902502 11.679008026188432
Sn 7.0421611073835555 11.62428521748871 10.426615466761909
Sn 8.039448745200595 6.7867341651790785 11.480412236275837
Sn 8.08453221737255 9.592278036423444 12.735727380680224
Sn 8.651693391979444 12.408228386711032 12.829833555518121
