15
Energy = -52.39920252 eV
Sn 12.4450931851325 8.249841928191056 8.665260109145148
Sn 10.79231705173214 10.89910661127894 8.008720342607482
Sn 10.004369297186283 14.014370080900196 10.769004697137238
Sn 9.480085150487328 8.532951749413337 9.41311791807798
Sn 13.835751945966669 10.970527339350859 8.080435877920687
Sn 12.608848028779885 12.455708041714725 10.26561933192063
Sn 9.896352545052045 10.886456553832147 11.111257238044205
Sn 14.33593512877948 9.504391968662908 10.761260680187688
Sn 11.542390857767392 8.242496187422205 11.649959849177273
Sn 12.64279980056 14.345438382684355 12.589388978096586
Sn 12.62399626564927 10.892283773023316 12.818604701248304
Sn 12.205153863292066 12.6512045197144 15.112862601294331
Sn 7.822980866805035 12.5841583288567 12.33650467550646
Sn 9.675445448013383 11.197270100647762 14.304848873945769
Sn 9.850631777457428 14.3359456469676 13.875305338351094
