17
Energy = -58.55689488 eV
Sn 13.489220637157773 10.8410110858654 13.906067756853338
Sn 13.30747902059198 12.78022439485886 10.652256480386527
Sn 13.367057161456819 14.626160795247488 12.964704685236894
Sn 14.541344073902772 8.082548553882006 13.646463919175261
Sn 12.786075615972381 13.11297196094849 15.475539429873704
Sn 13.888461600535932 9.732939931952012 11.069334929484228
Sn 12.78017392976596 12.95118344645761 7.698899805641529
Sn 10.497407683909747 11.988747436285848 9.55718750279735
Sn 11.526810418420153 15.197823689491239 9.334126869456059
Sn 11.077686009032085 9.776469147280588 12.121160194691393
Sn 12.172692212880108 7.063884955749013 12.09861482773236
Sn 10.606043595325296 13.988051464117316 12.23722051349732
Sn 11.725808783745771 8.371930266149958 14.870025167085114
Sn 10.440607376503193 11.32432795637951 14.72843963920752
Sn 8.75642089525756 11.638755094756528 12.124387950131696
Sn 9.85469395431478 13.712592222079797 7.200897648809402
Sn 8.659917300786356 14.541990542752506 9.870062897744935
