16
Energy = -55.43477828 eV
Sn 10.459469714664069 7.776360579464374 13.16502655352055
Sn 10.067769963875012 6.033520594964367 10.632732481958556
Sn 11.52126173506618 10.570293807360635 12.335002298860655
Sn 12.491935817081812 8.003288823645343 10.807359181070122
Sn 7.630296717022249 7.272048549311023 12.162586994783357
Sn 8.505560500733022 10.177297705762754 12.186881204223742
Sn 10.878525237044471 7.695782152396103 8.125299546813546
Sn 11.778559581612072 12.942573975550848 10.436683415834592
Sn 8.06081665108853 8.247309485436611 9.415182584132618
Sn 10.42671882047217 10.282987461811887 9.581035877382526
Sn 7.449212290724515 11.558797494687244 9.369010080297675
Sn 10.894043947849921 10.320527055773761 6.361370664177513
Sn 9.890066114385942 12.786392406600056 8.047395771903856
Sn 8.532419477675596 8.267709814901476 6.187003568259911
Sn 7.94692171637494 11.30649585828565 6.148431682684862
Sn 6.043508514067883 9.471688584194004 7.6646113467735875
