13
Energy = -43.95955008 eV
Sn 12.112826137346179 10.776550686573987 7.60277118235064
Sn 14.365522414161967 9.665388997480123 12.3527558031387
Sn 13.866539829067705 12.599771828927482 9.196235935371464
Sn 12.659087059002905 12.022880540642321 13.083529254006809
Sn 12.205729895020394 10.187887884195899 10.415724083609653
Sn 10.731646416234119 12.875678140781382 9.128654248579103
Sn 11.433117560852999 14.509656714802297 12.520410423271485
Sn 13.04680112150177 9.905710975912932 15.114949549876126
Sn 12.437671725950612 15.136931154747016 9.820379977107923
Sn 9.187167882547074 13.833344013957635 14.163992454824447
Sn 11.0536310292313 8.990360563085167 12.875891832005248
Sn 10.377656777500048 11.221583277116585 15.071476624641742
Sn 9.589592605319174 11.772176825465845 11.946030145901505
