19
Energy = -65.85034307 eV
Sn 11.160640473694038 11.630009674206374 12.267875239938688
Sn 9.937294968710985 9.545156140212287 13.949544437717812
Sn 8.408050047189224 12.703005449875787 12.633666891088918
Sn 9.747767525185006 13.298372954174127 9.96775771673884
Sn 12.940768507599453 13.31642393134838 10.734606672607779
Sn 7.393410767020701 9.924927351295734 12.409055300259759
Sn 9.293586111764887 11.744927123129216 7.278311837331349
Sn 10.948552207697748 8.48977018169523 11.313079295970073
Sn 13.329027174402896 10.45354900107896 9.90668575363066
Sn 12.14236810641792 12.676761076034227 7.908766794082486
Sn 6.827044895071204 7.1023098751713505 11.350077741321286
Sn 13.036474034138731 7.6032242111521695 9.294556046508367
Sn 5.95479537489648 9.827414623084895 9.85634233753818
Sn 9.050764669559122 10.173945873632293 9.815556108670545
Sn 8.64788008942112 8.68010936488162 6.916336150326272
Sn 6.3534392635126675 7.300751828697203 8.387270966353896
Sn 12.004077918146688 9.79060039577205 7.106646273115716
Sn 9.203043918623228 6.795592221005219 9.405614281349354
Sn 11.088490334476381 6.893193162806193 7.080993344255858
