15
Energy = -52.0140452 eV
Sn 12.706184190147024 7.133127429157527 14.535806466052641
Sn 14.625814126307871 9.42511242683534 14.282102588749844
Sn 13.561759317104235 11.648782679097842 12.295246419794648
Sn 11.653817881744711 9.989144324089256 14.429608210852974
Sn 13.186575343195727 8.403962356612798 11.810844179936165
Sn 10.34034896035161 7.614149812615906 12.868766790897924
Sn 12.638694492018422 11.978809710102489 9.33422947813097
Sn 10.786657408574166 10.350065083061589 11.452256831610896
Sn 12.164060780855982 14.93833777202776 9.539562841739379
Sn 11.113700917264527 13.53321502856206 11.960627332380156
Sn 8.320989216021687 12.000169948290495 11.258414998865069
Sn 10.49921805553157 13.396352192732067 7.503319035213621
Sn 9.849729277830404 10.450400749987729 8.636639405830786
Sn 9.117709066129196 14.800407144535791 9.891831186271448
Sn 7.70112022870243 12.493300131538946 8.400009631888958
