19
Energy = -66.54993403 eV
Sn 13.16440897339189 8.199766487905569 11.651737888022284
Sn 11.080677958226683 6.604608471875103 7.382245043418026
Sn 10.662019838385298 7.30802851464912 10.247135947798025
Sn 11.001499296121528 9.445624428289662 6.79486936975268
Sn 11.648430820624343 12.08445685518424 7.844896646720063
Sn 8.768099332742775 8.979194416222867 4.742576301087688
Sn 11.740854329429505 10.416791033244365 13.390372351152815
Sn 11.781902070933091 10.337717500727818 10.193687960395152
Sn 8.287183210669903 7.374864876552472 7.25851676372672
Sn 8.109466650902862 7.141735283702503 11.87934933389672
Sn 10.761879582913048 7.559602783181264 13.454819583495809
Sn 8.599031752967225 9.766010979158603 13.510770977805501
Sn 8.681118924449578 9.727285808647316 10.389741513864124
Sn 8.461024744683066 11.445364377067804 6.360465316329358
Sn 9.810565740170432 12.084345760766338 11.783779292225404
Sn 6.129788988879878 9.330221192748937 6.374009742373319
Sn 8.92764451143695 13.08983337705866 8.843859174734982
Sn 6.228566845878727 8.126253944049688 9.315314622086452
Sn 6.479351150576377 11.205690282169297 8.856183460190326
