18
Energy = -61.9649163 eV
Sn 13.799952737368937 10.374143188113996 14.312849185650139
Sn 15.96750578657441 11.498553886176195 12.19465011782408
Sn 13.73101636164145 9.583897068038825 11.262118735063385
Sn 14.819503912155712 12.583001858434379 16.232869697515437
Sn 14.278903938324506 13.48059769403935 13.481524230897534
Sn 12.028994876240013 13.070258098344866 15.903351250162224
Sn 11.99739008318796 14.885072054745619 12.175934048195666
Sn 11.641847094681266 11.671806226769885 12.721437134075867
Sn 10.09207475915286 14.88960543533588 14.694314250834791
Sn 9.497442403188948 11.716246304957323 15.026567508235104
Sn 7.454674512760074 13.72183191706494 14.364021098901084
Sn 14.978351020697195 11.513906714830057 9.162067462478994
Sn 9.184465357451392 13.239807358651273 12.010052502112048
Sn 12.485669098344237 12.962156321924626 9.968595739307311
Sn 13.275825645892162 8.89394191620314 8.424910357653882
Sn 10.705617488732145 10.095704406724236 10.052946867817697
Sn 9.74527749682494 12.689161146982498 8.865683479431336
Sn 12.086281604982196 11.360564431230321 7.4554395781749765
