15
Energy = -51.53674845 eV
Sn 12.693813946942019 13.715932530650782 15.451736438626726
Sn 11.5502682297811 12.66131011137413 12.776806648833762
Sn 10.14155966724218 10.204896832332533 13.903360745902294
Sn 12.148387703581792 15.772517210036549 13.097906868147085
Sn 10.457176041119704 10.129169343011148 10.682122977632334
Sn 8.693077402073392 12.340364910848749 12.096535612321246
Sn 13.110007682294633 13.948119409797691 10.36775993602348
Sn 15.256229864128672 10.035991278190412 12.744436347259331
Sn 13.139881289655314 10.629221050457495 14.981228929756378
Sn 12.553271855654776 8.820469551774625 12.544007672438317
Sn 14.852252259811298 15.588979016042561 14.73275449320399
Sn 13.421102668747945 10.962768032985062 10.42936529252572
Sn 14.72042772748823 12.990719796547875 13.063652731139682
Sn 10.210210646081919 14.66781890744915 10.885488803814573
Sn 14.930836956237771 15.846124973147504 11.688355115600126
