15
Energy = -51.26529944 eV
Sn 9.489059491673004 13.277776812486206 8.507687392569514
Sn 11.070787354515925 10.818942158594597 7.07365656880142
Sn 8.055955939704294 10.987090287491478 6.926857563031503
Sn 8.869673463484835 9.123882735498608 9.010197152093586
Sn 10.069257119050736 6.396193757584764 9.661913670864115
Sn 12.330469026478012 13.366255464341664 8.078011052926119
Sn 11.927293085161745 9.079210286156918 9.39869472914092
Sn 11.828357037361334 11.854567482657826 10.468012044940732
Sn 6.975643621344131 12.37094191513304 9.56985817561135
Sn 11.386601366866202 11.943468941744129 13.355236884560835
Sn 8.935239277975013 11.13350161992101 11.277943508114006
Sn 12.61758459623685 7.094596886396419 11.374146263211765
Sn 9.755601079943759 7.974505088614895 12.08848711500396
Sn 12.127060242879443 9.074171441023214 13.698564499423103
Sn 9.081271743616334 10.024749568647266 14.030587825998554
