19
Energy = -66.56999866 eV
Sn 8.110432630958249 9.16754424105966 4.181387890150865
Sn 12.581189902378767 8.806232063764114 8.669489789949422
Sn 10.018603233690598 10.56841809196075 5.98046652789888
Sn 12.608694498486173 7.3545550262008215 11.339073571828482
Sn 6.825928014419776 11.333642846377693 5.730198615947718
Sn 5.9880614197195605 8.119925509457563 6.002862557832185
Sn 9.06948231461824 7.2371489990184505 6.237358709324634
Sn 10.90426108120493 6.258454053228684 9.037925684268725
Sn 12.83203259810914 10.359132556274094 11.354026885301577
Sn 9.619194683609743 9.176044096456339 8.711442470092546
Sn 10.90903068180944 8.895995343649169 13.285716688231462
Sn 8.557741505357551 12.144091784176075 8.28306670564291
Sn 10.050501877900144 6.045344747358572 12.051289720134816
Sn 9.947206166299 11.0702761530407 11.064686330195425
Sn 7.293432458102274 7.015739171670974 8.837047344208012
Sn 6.444628486848206 9.92628599570468 8.409642654659084
Sn 8.416868197624444 8.472479449382602 11.514857439799734
Sn 6.929941171634439 11.642192160625159 10.990684827647183
Sn 5.525036021488386 8.900300828378345 11.031327634904502
