16
Energy = -54.6111159 eV
Sn 16.927735025861903 11.965521654205412 8.96424090753459
Sn 14.274854293880509 10.696212398586459 9.212953446413028
Sn 15.555816389509207 13.123322070017183 11.156678746093743
Sn 16.345734951058848 10.19129847568321 11.544380507637888
Sn 12.510266751327096 13.124875121079787 9.91101881229046
Sn 13.665018355976933 15.188104185636773 12.08951361449419
Sn 11.022941475473324 9.88799074007113 10.922560887039172
Sn 13.605820643209775 10.872903766122374 12.196980926297314
Sn 12.293964262838745 13.11081041800816 13.802207108249423
Sn 10.36986035947736 10.102726010816395 13.81800227149557
Sn 10.561509687413874 15.058292940521294 11.949268439829563
Sn 9.485988534914817 12.492761116754744 11.078233053481727
Sn 7.923532641391062 10.209677676037225 12.146470874798123
Sn 10.762424748650318 11.881505399150708 16.100022649224286
Sn 9.220444954834559 13.695478674434483 14.216225962999221
Sn 7.793760480441522 11.211210143258254 15.015561572008284
