14
Energy = -48.34366149 eV
Sn 7.334067683951482 11.049946062366008 11.313234890994133
Sn 11.678322886847345 13.782705101376857 10.971226991491779
Sn 9.66358498996985 11.883293080799216 12.758483622779087
Sn 9.379669094410447 12.272444340425375 9.529958823681426
Sn 12.426136901201378 11.149600351973609 9.181807709610792
Sn 11.308722364759113 14.01244880611588 13.91746767570449
Sn 14.452998761018806 12.945901302091615 10.194881621802418
Sn 13.936593747598264 12.677639613086006 13.15939337305814
Sn 11.94377124895598 10.788736998348346 14.340354257268398
Sn 8.863426579570376 8.940962925101408 9.822279037497475
Sn 10.251951724319232 10.293260805732281 7.477617966998189
Sn 10.288111549661405 8.871476607909642 12.557889771991963
Sn 13.65114867904759 9.924427100078377 11.75006912546207
Sn 11.777575568488066 8.318076131923286 9.775264092623289
