16
Energy = -54.68545883 eV
Sn 11.867836183995163 10.453401657070625 13.022462776301618
Sn 12.306596615766894 7.508389271466804 11.977887383269927
Sn 9.624373943658785 6.310860515006677 11.182015172844048
Sn 13.407545882011298 9.90314657817715 10.498733956288483
Sn 10.953608688705453 8.41003915472654 9.26450345816389
Sn 8.950659040228441 11.170417934146904 13.090846695980078
Sn 9.638052717995699 8.261356271197265 13.514551375959433
Sn 11.875707371985348 10.838639953797133 7.503524177090987
Sn 8.905291654370721 14.339585088476106 6.0369755183640414
Sn 8.178587342415632 7.1312537115947725 8.314565933367557
Sn 8.370278680732833 9.14908775157938 10.772721877965683
Sn 10.537855090064465 11.301408939369736 10.30790201544194
Sn 7.482437443740207 12.068925128342707 10.102615385654621
Sn 9.610850818708606 9.057134563280096 6.501235260261478
Sn 9.028273616345578 11.908583504079564 7.495746214412848
Sn 6.858304855668804 9.830551843737165 8.117036550085595
