28
Energy = -97.30291218 eV
Sn 10.200853010571493 5.518208947885607 9.02628495077465
Sn 13.839290367377464 12.458639841436296 7.372788909984833
Sn 10.822734645607987 12.856822148401243 7.296403562735963
Sn 13.172355067915769 12.030659078624339 12.214509544858478
Sn 5.112771385032069 10.964785952959067 11.173992094973922
Sn 7.678057231853586 11.437872250104773 12.713402680316882
Sn 6.464540626821314 13.6871697216384 11.06334304255484
Sn 13.628535588294659 8.908899711564697 12.471145393508088
Sn 14.061410711537384 13.98402563705746 10.027966941574508
Sn 12.254510777944336 7.43883255080584 14.760454304358156
Sn 12.6151813527612 16.558865661877817 10.365592458565267
Sn 11.388691000686997 10.265493151324659 14.432679571246325
Sn 7.3706846984532595 9.215594321164499 10.578209023882085
Sn 10.154303231365155 15.50121289490723 8.883235500420202
Sn 9.628657383169115 10.080147612330183 8.546328014700881
Sn 11.278168588364505 14.289021005116428 11.769128226350158
Sn 13.256306488693362 5.407367294881294 9.171753523805112
Sn 10.186220321214574 9.754397281423179 11.663820924447267
Sn 9.25571975965563 12.878368205166772 10.178040141176588
Sn 6.815840182000305 11.728629716449488 8.675133479225266
Sn 12.87296333806363 15.331391839292715 7.467692181284534
Sn 8.640912027322104 6.703715829859381 11.548022858368958
Sn 9.341698249342263 7.896112444118549 14.249690257179061
Sn 11.782394236090013 6.938125679824262 11.266503044013154
Sn 8.530551965520605 10.508451058062555 15.3954174790115
Sn 14.14087101811818 8.25795698634312 9.42690768238075
Sn 11.667481483441785 7.737411959637327 7.7280018959241685
Sn 12.46025385381529 10.858010328389906 9.502539363615012
