24
Energy = -83.03846117 eV
Sn 6.927959237619345 13.555413345908041 11.849933328725523
Sn 11.177298112097748 11.0505570822295 10.81591029374608
Sn 14.021762915828415 9.847679501300112 9.301514124524445
Sn 12.943442785339784 8.691989162466564 12.15227146522277
Sn 6.981328776395428 10.899457470259643 13.28888734473079
Sn 5.590026078883504 8.467565856102382 11.88035453032893
Sn 11.455486415425995 10.686680924855358 7.85676866400479
Sn 5.785816978954333 11.093694316401246 10.381553469553587
Sn 8.368478550703555 9.295206978137886 10.898518468192291
Sn 8.77659343178788 9.594271933095044 6.255172205227381
Sn 7.896122308681176 6.373814610012452 10.750237572670866
Sn 12.31723188787343 14.0222722391786 11.089086905574895
Sn 8.237922546074962 11.22671528131916 8.643789025499691
Sn 14.175987356606717 7.037852594214426 9.918676366703938
Sn 9.982497407707044 9.738838071766622 13.32820184398866
Sn 14.142134353868046 11.649422672601592 11.864264025684875
Sn 9.387999992349506 13.67544103585138 9.948538349890521
Sn 12.40991798174969 5.441956787878633 8.17388498772572
Sn 10.807969327938793 7.795803767351401 7.6141232186605015
Sn 11.721763150332055 13.728995710990525 7.928103509220082
Sn 9.690241589923776 12.730660963200881 13.011084272159877
Sn 7.541314239321686 7.803218584917878 8.241953436055919
Sn 10.973672553225429 7.1390073043690965 10.422532096479754
Sn 14.395125881390776 12.935065694340489 9.053840702928683
