27
Energy = -94.39160951 eV
Sn 7.436964612452726 8.952587717437972 8.048423834499399
Sn 11.382767897389364 6.013107455060621 10.431662304393917
Sn 9.242556040331612 14.94626605719987 14.429713060456617
Sn 12.39857656782619 10.059629671713617 7.707883519319304
Sn 14.284055920604454 6.14791846636507 9.17297306247157
Sn 10.725918550055704 8.6094017160453 12.615916147764292
Sn 9.682378521596082 9.731630112987549 6.387388786935509
Sn 14.417178416415142 8.059207944153 6.837029580587903
Sn 11.253612139379927 10.710294436653488 15.028101877979873
Sn 11.8658228144383 13.678388397908353 15.474571640807884
Sn 11.637844884010535 13.334213061094866 10.332582699419268
Sn 13.654322485086396 7.575817691106573 11.738883678487907
Sn 5.784272145215574 10.7997836690421 9.668029814432618
Sn 11.64361436647921 6.954704282833449 7.412398787971771
Sn 7.908814659157085 10.300019819223294 11.638946713675336
Sn 9.145564455427584 15.095462386828535 11.436598772536511
Sn 9.086112490954557 14.530438585936729 8.558878399539783
Sn 6.590714236103488 13.715897510354806 10.084452977796591
Sn 12.46967830478795 10.337965393938044 10.760730147906807
Sn 15.077772888206022 9.227974012096189 9.616442994982597
Sn 10.130986497649442 8.620292383378255 9.4636557111045
Sn 13.8545004356532 9.482468969631025 14.066164486029637
Sn 12.123951843031591 15.1608804658927 12.786234463336742
Sn 8.905056278200242 11.577903720344919 9.069599842334465
Sn 7.183223811264172 13.11483729048093 13.052882874868288
Sn 10.071320309686206 12.257924035957846 12.755293201407795
Sn 13.439724146738476 12.327880585961783 13.243093613767016
