26
Energy = -90.65526345 eV
Sn 10.90973843762674 8.709336806310137 17.03115609839979
Sn 11.733120030559363 10.802357266365597 18.9571890503337
Sn 8.937295678192188 10.048757804019669 12.61577747332509
Sn 10.464043742824675 11.543390792627166 16.214272583287162
Sn 11.652845629517754 9.422358157295657 14.166835635959256
Sn 13.540573618303046 10.386197736655346 16.438791934337388
Sn 12.880823160217432 13.206123398888996 17.491717484425227
Sn 10.70102060647401 12.524038897444427 12.942138056224275
Sn 13.785621092549674 14.201321607536476 14.780679816548135
Sn 10.155409674584702 14.860543611040383 10.831698670599948
Sn 15.924682128104891 10.725942379690423 11.358640229551451
Sn 8.28311672075604 12.367114409840095 10.815712624760074
Sn 13.665014316440423 11.652670304432055 13.19099884568092
Sn 11.86097152250239 16.078106262430836 13.035382760921697
Sn 10.220637157444301 9.981196889548075 9.95423753164306
Sn 15.212393131873245 11.061048689773576 8.335392017975517
Sn 10.701609472326114 14.465264320821577 15.550483756284766
Sn 8.544219472679297 11.527697428329857 8.002019635155294
Sn 16.38423416742008 13.579640211101374 12.421400085615543
Sn 12.89537753004686 11.402973405292153 10.206388703901917
Sn 15.077815311137186 16.36914516973521 12.973230776399447
Sn 14.086005993152868 13.846731357614805 8.15449454111381
Sn 10.915254735457012 13.130122121946844 8.590206801244234
Sn 17.038986434919916 13.109053021611478 9.47352540745391
Sn 15.77698982015175 15.752479982449515 10.017411808100045
Sn 13.39922548710267 14.270671109701084 11.19732638214201
