20
Energy = -68.50012353 eV
Sn 12.979351934305503 11.975823851110205 8.751926782005823
Sn 11.351902816067842 14.44826596445815 9.322194304596993
Sn 13.421903440355683 16.401382691569662 9.992555592236931
Sn 10.11948325752205 7.717136582358052 10.019090988761887
Sn 11.875903017460702 12.186673985125072 11.495241329555459
Sn 10.383937639962252 10.544539373888954 9.307854598061896
Sn 8.699950317407362 13.090898197321145 9.125839009631825
Sn 11.971561462371472 15.858960573969469 12.335113858707244
Sn 10.735565437117558 9.437240277111979 12.322755028985545
Sn 12.845064246751573 7.338279524489293 11.274721457118417
Sn 13.858340955606858 9.868706503848937 12.34267916982269
Sn 15.030547913599083 14.831605644777877 12.174780142407416
Sn 15.195479670483083 12.09504890399977 10.870871799442988
Sn 13.703898645049778 12.880841535878002 13.873008150687427
Sn 9.277489828355815 13.896924278170697 11.889885831060083
Sn 12.637395073966347 7.765103503718005 14.325935842067477
Sn 10.473519811091824 9.882785479510119 15.28653430952968
Sn 9.879904413536611 15.581362221728222 14.262965053699448
Sn 10.770266882272947 12.732746129171103 14.347449957048072
Sn 13.594705410100278 10.271846951178468 15.48476896795678
