28
Energy = -96.94898111 eV
Sn 9.4188929152286 8.61948399994246 11.183946925040955
Sn 8.361472223355895 10.65216601396446 7.158655307797448
Sn 13.44259615077278 10.004543449817112 7.764504740556877
Sn 10.71936827512536 8.682050701016504 7.651074346572285
Sn 9.362150723259072 9.601430336878769 14.107605158775813
Sn 15.555318193568734 10.220800460852985 11.48733675573023
Sn 12.058113615898485 9.799676821421192 10.4396356907235
Sn 11.375851386768518 15.902559716320129 11.919952180868338
Sn 7.464568256246237 13.243877009776408 8.535489833144497
Sn 9.981044572956579 11.726564833740898 12.03019369598998
Sn 9.78285991841786 11.20780736031374 16.791357641241923
Sn 6.99965622118848 12.990790594942203 11.57569227949473
Sn 11.261613063534053 12.73734577094207 14.859734075260514
Sn 10.782828208021057 11.901919809503264 8.315354436775186
Sn 7.288123434194734 10.420107709283409 9.976804822303757
Sn 16.069707773275407 12.597331270263139 9.869713060651598
Sn 16.769900765550396 10.972071100112329 14.207712968093611
Sn 11.462480863524167 6.795080330255368 9.817047292179232
Sn 11.949736937265765 9.586591664632527 15.535290516170846
Sn 13.626811615971908 13.038931772571617 8.062747043107704
Sn 9.810061009075422 14.084433308191976 10.216665549671456
Sn 15.982754030205953 13.42459506315829 12.8034406951606
Sn 13.416603586222944 14.526153754641339 13.750752969564985
Sn 7.646859688372773 12.218106387215101 14.466676039567318
Sn 9.220776074147883 14.62931665128421 13.50766467724397
Sn 13.178196220684285 12.658351482187221 11.172376785900768
Sn 13.863440719903544 11.153254773787742 13.834364903800635
Sn 14.336477817370112 7.987145298284672 9.781940729865417
