27
Energy = -93.88877286 eV
Sn 9.047148023930866 12.825999375712874 13.384245059887395
Sn 7.0848222180222455 12.36029639498542 9.529915170440674
Sn 6.077317927883523 9.920869155340101 7.9686809531808045
Sn 8.904967535506692 10.516712412148745 7.167963338845374
Sn 11.590539234241106 5.703435030436765 10.42915463345853
Sn 9.549323160435646 12.748179537453426 5.3052697838034115
Sn 14.22308274410916 13.050116724825884 7.209953182371026
Sn 7.510696715408335 10.113334406025077 13.968859245252968
Sn 12.521623361512075 9.03939839674556 11.316957141412272
Sn 10.000777417768205 12.539454087829796 9.082244870973716
Sn 9.807120417738243 7.868195724805609 8.637685293300592
Sn 11.48678778144818 12.326469470918774 11.740177230521356
Sn 11.486163374753449 14.138010679191186 7.055751107824081
Sn 6.727640442821889 7.282157219109432 9.076259805583888
Sn 6.313333511109386 12.58073703069912 12.473971339063327
Sn 13.3893943714759 10.880188060835607 13.433582948762998
Sn 6.4625517848643 9.734772405738521 11.10403192731441
Sn 6.654610371330146 4.715016307656526 10.434151690914682
Sn 9.172492024067475 4.947892870861989 8.759337340228893
Sn 8.720387267520398 6.473975168840389 11.467719133097566
Sn 10.92180834644734 7.341564251962972 13.214237400802546
Sn 9.475156495567264 9.696857102788206 11.158066060236767
Sn 12.965100467200466 7.866605358552364 8.64544246990071
Sn 12.524396320962982 10.96416924052751 8.42516808305602
Sn 12.40310407649428 11.729375012090825 5.2804055649788255
Sn 11.418756784548412 9.013393307052992 6.181066399055219
Sn 10.518289881025808 10.333102666042906 14.192003491725627
