27
Energy = -92.87199362 eV
Sn 14.010762702683042 13.873244299423169 9.451277515763772
Sn 6.5050797766614785 9.413971982888931 10.982950880261942
Sn 10.15438954386453 12.949163172703674 10.888318962586734
Sn 9.171875733020913 14.024368059320443 13.560637720196627
Sn 12.601391734792088 16.626657876158298 10.253808541874832
Sn 9.503815787013298 9.359649611617314 10.721780429488044
Sn 15.121348516772125 5.530253514098209 9.908052673295723
Sn 13.911688580865578 13.09696258742144 12.4320242830989
Sn 12.564810697684237 11.173556156199139 10.333885704529807
Sn 7.410335642128951 11.940228104207693 12.29880625018477
Sn 11.006475091387632 7.257224276547821 13.499873129095953
Sn 12.156427434303598 15.589987182494326 13.273927344640754
Sn 13.645536118930961 8.618373585860414 12.244147633070881
Sn 10.560157431582285 11.4797219039839 7.990258308096431
Sn 10.703206009837961 8.334473546090136 8.194062504830432
Sn 13.283868907511225 7.722850635642986 9.435765737680935
Sn 14.146464735209834 10.896480001032154 14.297497079452897
Sn 9.736104413838648 16.002959596040867 11.057220935249376
Sn 12.958843098657047 5.523487258285515 11.917320413399562
Sn 14.957691365831186 15.759176108691557 11.91785301946451
Sn 8.243161064105683 7.012351322895024 12.233184123259258
Sn 11.163539440279555 10.260302423031858 13.059206559223005
Sn 7.091540240764853 14.20363737039346 10.40462478955985
Sn 10.455105862809452 6.213175673799757 10.419701208018779
Sn 7.735153996446165 11.608236571002314 9.106141460517591
Sn 11.69292062956362 12.73488224185277 14.718054384855572
Sn 11.14270862382657 14.640501315482625 8.48408678636177
