25
Energy = -87.73012048 eV
Sn 11.77998898472187 14.884830820813507 7.317599953178372
Sn 11.135329083201608 11.8405356178772 7.762900357142733
Sn 14.117335644543529 12.866920816136169 7.7699836285961945
Sn 10.615673792613642 16.260161822853036 9.820918025729434
Sn 9.06703693486576 13.953056921637764 8.382802420905902
Sn 13.632621880077465 15.436501104771182 9.7791264172156
Sn 12.814138528383458 12.161182371051195 10.402222082161707
Sn 14.84512845813608 10.278368990476357 11.576598770958066
Sn 15.653317330510784 13.091013055919717 10.621071614058048
Sn 11.906265698590465 9.403228294071658 11.56939626494187
Sn 8.746376170433718 14.378175149315263 11.591263654518889
Sn 9.892669969644075 11.739944370820675 10.565793329448049
Sn 11.708718971854807 14.46697257200311 12.026321976223276
Sn 14.577709089079995 13.203764854953864 13.68886258342915
Sn 9.641995295327499 14.744902671235073 14.670599029538684
Sn 15.79942450352794 10.335336648397869 14.716662891609623
Sn 12.415682172359263 15.878800565431886 14.533775735585413
Sn 12.792685728026433 10.656559814005732 14.091847954539022
Sn 14.034648232306202 14.28301174850337 16.578004201270726
Sn 13.401324649869238 9.180525543309297 16.585483451094696
Sn 15.679508743079792 10.673863387159136 17.763953271643555
Sn 16.72548046570756 13.02162258384628 15.917133709245611
Sn 11.605723121407339 12.811020016965518 15.620422411625446
Sn 12.733523065264292 11.721079318185048 18.231743239884295
Sn 15.280740378474107 13.33166783226739 19.018559917462564
