24
Energy = -82.96883708 eV
Sn 16.284043211120622 10.063828831536659 10.296379803497485
Sn 18.067255751809704 10.850933964239259 12.652902712834194
Sn 13.816527644078116 11.917890110525466 10.461877983758844
Sn 16.417605244681152 13.193962423535918 11.617319864824921
Sn 15.993448791458812 13.60689631235831 14.823558156340154
Sn 15.052749332076917 10.916641860536812 13.319508653104286
Sn 16.52433070034973 8.296866440564791 12.78671032363893
Sn 13.754692665529047 8.833964619110287 11.533370855061813
Sn 14.73328189028554 15.612624513336735 12.76557833331891
Sn 14.48410759808261 16.091040986724092 15.876981110968595
Sn 11.419155892312837 11.450872685411282 12.49939183374758
Sn 12.971023769835698 13.46583953473452 14.567549861577758
Sn 9.36287359303174 8.922418697372544 11.22723301344331
Sn 12.154882273440519 14.47868300301968 11.613853114692413
Sn 8.512800467871324 11.144435095691115 13.315674992036438
Sn 11.794062556199085 16.359499509100473 14.11538575491528
Sn 12.588448294418574 18.23166040981477 16.49145728862969
Sn 7.026411006401404 10.809868108081846 10.67593353382199
Sn 8.420786468146497 9.702770222431484 8.377065073007108
Sn 9.219832986683713 13.83575103802954 12.015991722964822
Sn 11.564454187519267 9.800072345788001 9.369202903017182
Sn 9.683632543271212 12.05899837513681 9.717827193993674
Sn 9.85823677840236 17.06848390517425 16.16828240272615
Sn 11.85086424514092 15.00066527327844 16.976158661036735
