26
Energy = -90.54397336 eV
Sn 9.049118532327364 8.556855131656402 13.081530797745467
Sn 7.350553616628723 10.721600759683865 10.43700927780377
Sn 6.32234460781987 9.952127903416539 13.158069674009775
Sn 10.466413491369988 13.155930802906788 11.012464896173487
Sn 7.29607800695968 12.884538419940522 12.628786335292757
Sn 10.259674588518077 9.887889732645029 10.74885420367297
Sn 14.512813835162511 11.32645824291845 8.87141725057545
Sn 13.4022902410467 6.947832262769126 12.705477755573002
Sn 12.269966909035752 10.536670862076434 6.767420458663752
Sn 7.891883130399767 13.758791696595388 9.589356912220817
Sn 13.849179266291827 9.6330793103757 14.162439951988933
Sn 12.187139475946209 15.827364883717332 9.326052813751708
Sn 13.723806381224518 8.429079263874032 8.275455982571566
Sn 14.805453840732948 16.113754247985838 10.585651585051421
Sn 11.559929736840653 7.284490525697799 10.220289225865612
Sn 10.006087366810808 13.401142426059975 14.045154290963183
Sn 10.504402836263836 5.935578663401055 12.847484974554133
Sn 6.999495124553261 11.64831569596596 7.682930477873644
Sn 15.154447353666368 14.509552200759689 8.222619731231042
Sn 11.490582064142561 7.81579484225112 15.025179414466933
Sn 8.342369136911373 11.071827769889365 15.058069769083973
Sn 13.234345469124497 9.75916175265124 11.22410757262216
Sn 12.37089056780168 13.30581975693536 7.89420344744467
Sn 9.882033793603036 11.565282979122896 8.224634100893397
Sn 13.587352765807323 13.432100681929594 10.96557883720331
Sn 11.150755794993572 10.733680634346436 13.573557530607701
