23
Energy = -79.75776721 eV
Sn 13.19103670732354 8.86403530261131 8.778850059048011
Sn 10.713514613841463 9.778189602678891 10.522290145955983
Sn 9.782707858758151 10.127269311409583 14.832545075814956
Sn 7.375789323548606 10.180720081472261 7.898151615288551
Sn 15.65405126851918 10.121445063087172 9.83144565691773
Sn 7.934557089102598 11.123889772177836 11.110566915480327
Sn 6.570106489370126 7.4868921671640525 8.55785170159771
Sn 6.951969086084265 12.95752710266112 9.010451404523645
Sn 11.955930231571022 12.965597510778512 9.683259889405901
Sn 14.070571900945586 11.77959766979593 7.915853749427065
Sn 12.015079718737084 8.645874049956268 13.196000848099379
Sn 10.330589578069056 12.041557237797761 12.690674817053988
Sn 10.569269619058577 6.852517996063078 11.12945186039746
Sn 9.053680374068293 14.137757652259566 10.902264905613706
Sn 7.029544533819698 9.732531598761495 13.615965709523573
Sn 9.696661017191678 13.630854288512907 7.901512741716909
Sn 10.34419601369969 10.725959504118501 7.491399478429297
Sn 7.650444312694166 7.96617952797602 11.175468147176526
Sn 9.062026672489802 7.3909203933872565 13.827127972750368
Sn 12.745830355632798 9.885457778810279 6.071749103996574
Sn 12.771131048041305 13.609352591084972 12.438223401198231
Sn 13.66269210876965 10.9070463274305 11.746948480222219
Sn 9.584205015258133 7.748982403270468 8.230656556467851
