26
Energy = -90.36231076 eV
Sn 7.104926357759519 6.666487467424812 8.419815729057449
Sn 12.432239968213127 10.178852955028384 16.22609575369325
Sn 6.705126292997805 12.652276025934265 8.892896670742893
Sn 13.43775558856561 10.293759907436982 8.784439511991325
Sn 12.02633783815055 10.99522471003541 11.451521345796593
Sn 9.885692056080849 12.486518685029596 9.1159208888964
Sn 10.70642696596943 9.625853875360523 7.752520121979352
Sn 12.87672284159456 8.354818969379293 14.039674266630513
Sn 10.921784033655992 15.364984964108011 8.463360035258907
Sn 13.99298640803253 11.276504488865472 13.739788491581855
Sn 9.658497560900024 7.458715963459541 9.626404466581885
Sn 7.58197023104667 9.61482833991519 8.906329869316027
Sn 10.691816748642367 14.50880530816957 11.528640331932463
Sn 12.616059396900022 7.2980432700639986 9.572303464003461
Sn 9.855144444132682 8.956573047730197 14.822569093073469
Sn 10.634283128770187 6.8348981340708885 12.478275325850342
Sn 10.896281001777384 11.877989907987676 14.226072431211383
Sn 14.575225240358801 9.137134095287342 11.474215763405294
Sn 13.668821780491665 6.207947650561369 12.16136467631235
Sn 12.96320340928791 13.36694676803557 9.76281503091213
Sn 8.407798350921881 14.286210939858629 6.974982364225966
Sn 8.199157982399862 12.732673907863166 11.691832428656447
Sn 9.393355737109683 9.800720861432653 11.941714887687997
Sn 8.197467519746464 15.351971768803372 9.928632552207315
Sn 8.630523018539842 11.183265425378584 6.369262642840721
Sn 8.508265491923618 8.10964480147271 6.219752408319886
