21
Energy = -72.86582126 eV
Sn 21.59585254554283 12.959641535985098 13.716678328617867
Sn 19.66466455839805 13.408810051900117 11.68600371012641
Sn 19.17228648963521 14.30978484114996 14.876191002065351
Sn 17.04607747219569 14.293806373962326 10.458776857149983
Sn 19.29063706896398 11.086627379572565 13.864766193169546
Sn 17.04667445342319 12.789309666305083 13.248114967667105
Sn 17.621888579554227 15.93231813187966 12.813807829978211
Sn 14.88565416267117 13.284930119872909 15.434468725740025
Sn 14.341986585481253 13.80749372225251 12.145740998630368
Sn 14.211957484673551 15.950637997029744 16.971942694830457
Sn 12.610028160151904 17.610736249437497 14.874862939648562
Sn 11.700651492261873 14.655592005801468 16.343446840887033
Sn 14.87801855347537 16.052406632993392 13.932634111645802
Sn 8.805082892218874 15.130113285456723 15.744520487276095
Sn 12.224257823917048 12.546884840040494 14.221916135311751
Sn 11.074426259637276 15.445485726024161 13.4660811830018
Sn 10.059568970520937 12.117541452738967 16.527566809812125
Sn 11.050075427169745 13.275602222832681 11.460387703042068
Sn 7.474906055670778 12.483874234603649 15.162566941642861
Sn 8.322355607049337 14.194106835390247 12.735562675000086
Sn 9.574576493898423 11.31884242046668 13.295610138756738
