27
Energy = -94.06462017 eV
Sn 16.49940530963167 11.088066900305925 10.663166215402503
Sn 10.64340644422158 9.733399019591124 11.30639401015426
Sn 11.819459024258553 7.990096674324638 13.572730983730152
Sn 13.854686696500176 6.710046944191326 11.72273431426218
Sn 13.672810664569758 11.394546564760793 10.19160212859261
Sn 6.602815459934533 11.531526782927488 9.863568830376606
Sn 14.834681552460696 9.474108004089828 12.570091557005696
Sn 9.287636939009225 12.197530651534015 14.213548800185826
Sn 10.930436114284282 10.107121704550174 15.710583600743828
Sn 7.881325205526864 13.504834617324166 11.829071547839114
Sn 12.547636204635317 12.592610777282115 7.63621732496491
Sn 8.692165195328853 9.478643336202925 8.90794488425026
Sn 11.186297820147558 13.355011442483768 11.596415049403843
Sn 8.262892250454989 15.20601036492228 8.53465536151145
Sn 8.043050376722272 9.54372657934473 15.15563971778165
Sn 12.462502146819494 11.220388253176763 13.437669619202927
Sn 11.392782150990682 15.320188674875954 8.591213039747283
Sn 10.491052283357787 10.492548758210624 6.619692078499487
Sn 9.78474973211436 13.705843714133692 6.461947876505907
Sn 12.43020071970928 9.200200949982419 8.493109092840648
Sn 11.432188093386426 6.950923309436964 10.036225547662497
Sn 7.774468716074239 10.252758461446858 12.267779690631686
Sn 15.174878627810356 8.612793327841256 9.519689449279918
Sn 8.96659335140384 7.553769976693301 12.914687649301845
Sn 8.50157282360139 6.695494163340768 10.08137513795102
Sn 9.591038759519524 15.901510821244193 11.089671198787139
Sn 9.585115898287128 12.425035859179124 9.271748729064052
