25
Energy = -87.33061084 eV
Sn 13.898707554610873 14.783480330394202 9.022796125256805
Sn 16.799468680483056 15.449760810855492 8.492131436859692
Sn 10.444887041118982 11.505924796568703 13.43321362349558
Sn 11.442641260001933 13.30499770520209 10.866414455950453
Sn 16.04860629657818 15.259304602404221 11.345228990217317
Sn 9.591121392313601 14.432502962933784 13.31786867496135
Sn 13.371997592296683 11.710081192891536 9.020263291170657
Sn 13.07585624830665 15.753420443791363 11.919053892789846
Sn 6.84534767641859 14.387022167430207 14.642872099179472
Sn 14.311971562027768 10.237913939667546 11.607674522106992
Sn 8.147486090425048 17.019881041420298 13.958520733109305
Sn 8.712724590773357 12.3452601250023 15.868508801764856
Sn 11.033848505692635 16.713774204716888 14.751955883413068
Sn 8.87265542295508 15.502456773372067 16.64062649461506
Sn 13.92236070075 15.301732959411476 14.923596302305459
Sn 16.20180808162432 12.691390382586107 9.229699583556481
Sn 14.969371740201401 12.543580435241765 15.604901151436849
Sn 11.384401509493584 13.758714489734862 15.905672011095273
Sn 15.696824293256272 8.347368583722469 13.933514977190775
Sn 13.392637653900481 12.809393920733166 13.022525919171795
Sn 12.910307413425294 9.96530805926059 14.374852537577262
Sn 17.25341037780081 9.75031240034633 11.78337850063929
Sn 16.393673911775146 12.517163224220543 12.463532659612325
Sn 14.986076204795877 9.782628844943634 16.495484689376504
Sn 17.531815928199002 10.840525999583715 14.715325682649311
