29
Energy = -101.27612037 eV
Sn 12.801502499414326 8.869429222096791 13.92225967571666
Sn 10.264341596911706 11.501542730336944 8.675045429570078
Sn 13.138994198661234 7.853764602747999 8.778633109504245
Sn 11.184912617800938 9.208000535885427 6.722407889668702
Sn 8.592104204836424 9.725594561369107 10.742048194063749
Sn 10.401123551780268 11.74344298280787 12.203030625923178
Sn 8.755455287127369 13.912832647364743 13.687278375792046
Sn 10.218623751025515 11.724242300812758 15.3739239014241
Sn 12.068579300749102 13.804192030892855 13.846150488771356
Sn 15.746179641875289 9.919679917108393 14.275156808452149
Sn 8.379456802248784 9.06172621994859 7.845073241266161
Sn 13.279344215261364 11.339447241036344 15.673875168373867
Sn 13.256741065322329 10.888935005126497 8.188367412224187
Sn 15.080419419563322 7.978063481700254 11.952609603845769
Sn 9.11697465776161 9.315596801390093 13.711359447515505
Sn 10.14157830810031 13.687247802157486 6.410951512235942
Sn 13.155283163585207 12.834008345758637 10.874831091384747
Sn 7.240862093849038 11.458766887215429 14.725520896118947
Sn 7.919717397322043 11.634515843800749 6.348012998914586
Sn 12.726808265941461 9.816258146964142 11.140769544059662
Sn 14.954577620518952 12.740407526585898 13.41165286849415
Sn 10.708944009296568 6.805425543730934 13.765559401117281
Sn 10.429190655827734 6.57965153970246 8.092286814764632
Sn 15.75534277948523 10.811125984836245 11.246109628652048
Sn 10.647496748943597 7.591732632335758 10.867541621715702
Sn 8.870641442001073 16.032240991650276 7.683415259460256
Sn 6.922640643073936 14.336110559765935 6.172829976921946
Sn 7.985147994266436 13.576031378394044 8.91893163558017
Sn 7.286858124906939 12.248189057672844 11.624467612933755
