29
Energy = -101.25561574 eV
Sn 13.953740113672808 10.79061871547955 12.254891192628202
Sn 11.535266587130462 12.090033012247483 13.832671326023268
Sn 11.97013750119638 12.603813696751414 10.819580438458184
Sn 11.940085422947853 8.897368546706012 13.684126281009165
Sn 11.572140991974043 12.797699521327372 7.860929702496777
Sn 13.1520862199848 6.856210590187268 11.486450191012901
Sn 12.780101374576223 9.452277126858348 9.851978371380184
Sn 13.534365676014218 6.70850906358448 8.497145126523051
Sn 11.42857207163 15.425688596080528 9.659130626503236
Sn 12.63736927762348 7.744433772816519 5.714962948796575
Sn 9.861622170993769 10.466123843168099 11.509364595829574
Sn 9.28334351485739 10.101272941327577 14.761845516145913
Sn 10.269136135185166 14.677972890246117 12.443993974923195
Sn 13.532456551564382 10.257364822224917 7.132956844257037
Sn 8.460128901860614 16.10858885383088 10.214710430049216
Sn 10.981462090309401 5.584818887422809 7.0852180073278666
Sn 9.97156438456763 7.341593258325391 11.85420298273852
Sn 9.202859318946464 14.736415760608363 7.524978384730256
Sn 10.720855625816759 8.770233649861161 7.787362936389609
Sn 11.144019006270922 4.936374459600174 10.212237154540022
Sn 8.805294538893108 11.974730410305613 8.871618307465148
Sn 6.986858492834869 10.779565998294833 12.987118708521898
Sn 7.842026610923242 13.24781599892489 11.38580052497176
Sn 7.740228989117605 7.699053078559504 13.798956991565783
Sn 8.887669280022802 6.520416446387958 8.982500635164302
Sn 7.221556911053086 8.765497385622934 10.870800127651105
Sn 7.852035852540191 9.55913753322921 7.513563011383733
Sn 6.522514850992678 14.098374562202393 8.87955788726599
Sn 6.129318227298386 7.356868350094587 8.594170147237644
