21
Energy = -72.86325204 eV
Sn 13.40154587104149 7.6732383860791895 8.27912807823605
Sn 11.208542377070584 5.557695553285555 8.770748230720443
Sn 10.749921244795258 7.57140663572223 6.416918355107972
Sn 12.49217726297478 6.7964328819981725 11.289734120109264
Sn 8.30759269486798 6.459293925524618 8.250309409620455
Sn 11.920337391116712 10.242595286448335 7.181353566458974
Sn 10.00701484338077 8.086725671571234 10.173297324057476
Sn 9.727664237520406 7.563133351171974 13.05907624442047
Sn 8.706017609805713 9.511654055751322 7.837317639551719
Sn 7.4446006203491 6.640958185072394 11.298015979818608
Sn 12.462546152824475 9.790273685910694 10.281266711824271
Sn 7.151129747738671 9.45164901843067 12.196164666295866
Sn 6.287719703304914 11.188964820042576 7.322527881884445
Sn 9.38503470903798 12.481450465862972 7.390300792991624
Sn 9.555444206629193 10.559650370039506 13.640388101950432
Sn 12.428821942386607 12.6585753879888 9.020298360412037
Sn 8.784097197213283 11.304000957103515 10.382564384844043
Sn 5.621835084504113 11.099027765162969 10.179695761558385
Sn 11.58250460423412 12.08931835186455 11.955297764235176
Sn 6.99052810556612 13.59268067668765 9.224969082574697
Sn 9.935346424274849 14.083173311102133 10.094221629307476
