23
Energy = -79.85016724 eV
Sn 8.231694788910486 6.367071989947305 9.259489290410011
Sn 11.907237782715189 8.77350298207169 6.493664850292037
Sn 7.816661492658381 10.304238802348367 9.43949674171604
Sn 5.258024646766046 10.235486686024045 10.843793926746832
Sn 6.541310955056179 7.595331557841089 11.603572641072299
Sn 9.654312779307082 11.584754074586986 7.247401377241247
Sn 11.497102718836073 8.54769781696076 13.655596249009124
Sn 12.020404150767101 11.4684845667361 12.628721323875851
Sn 9.572446666742046 8.554636012935346 11.08105470440498
Sn 8.459465719083905 7.901845200126334 13.935630845898189
Sn 12.988079903416557 13.879023441686599 10.93052124934914
Sn 14.374285094423561 12.68211867147931 8.605126020865043
Sn 11.131690132664952 6.8976510354011795 8.8910110196012
Sn 12.579989944120518 11.872297330586761 6.286075678055872
Sn 8.941415184906349 8.510242005063311 7.228194063432692
Sn 11.41630646947351 14.236160321114708 8.348599675866918
Sn 6.8131041219228266 10.452162425095157 13.332854419992865
Sn 11.64024879043388 11.339442781774162 9.525225933577433
Sn 8.521023634609772 13.578274216920931 9.360524369805168
Sn 9.551571717393157 10.845879763489563 14.560699054247822
Sn 9.107336447810617 11.929045810877177 11.762769889538848
Sn 12.692658994032163 8.71222012434731 10.797574148481907
Sn 14.144765822189962 9.734831864803597 8.34446780520968
