23
Energy = -79.90649687 eV
Sn 6.51841983990397 9.106405019200345 8.7326919767539
Sn 12.435805058933251 8.719184310776594 8.480608495560903
Sn 10.119091283790725 9.185715039054617 13.881729704334877
Sn 8.542826059941532 9.13512541837105 6.053831100959588
Sn 9.08235226374967 12.187236068169065 13.33305640164127
Sn 8.702048689822707 12.66700125419826 10.372509463508766
Sn 12.842517446977755 9.388450882020004 12.28645956933615
Sn 9.81374052837686 11.354332571067578 7.689466028945187
Sn 12.737962710088995 11.749533358688916 10.138095092575794
Sn 10.157153740956616 10.13714505738462 10.878268304189564
Sn 10.859891269546095 5.705162350360989 10.147077563495243
Sn 11.058146030477648 14.029453570808277 8.947314886606687
Sn 13.592369508030654 7.028321714083784 10.690365532758658
Sn 14.24887816853291 12.044049475943087 12.589807199014368
Sn 8.669676951198216 7.421730636093849 11.63313301936221
Sn 12.710728927320947 11.526341251097088 7.258370022689451
Sn 11.810793813926704 11.719948621112033 14.38801655984619
Sn 5.936645132361884 11.80858437290105 9.738634575425062
Sn 6.842005913498453 11.73605125880356 6.935062321111523
Sn 11.357610757314546 6.453740441769222 12.932180315100782
Sn 5.624160111283904 9.191166878247884 5.95472024780544
Sn 11.419188822711185 13.849865689394882 12.06705645900327
Sn 9.5815470041966 8.080204134040146 8.740713297305184
