28
Energy = -97.21517764 eV
Sn 12.552147327961608 16.645849381142693 12.005986383680627
Sn 10.657382480887613 16.371168637094964 14.393852123361606
Sn 10.906753984621746 16.525149632946267 9.315078405704751
Sn 14.685510334024066 14.082307253404053 12.284852979036362
Sn 13.363895466979105 13.022725587681967 15.976548292738029
Sn 11.99032217008797 13.904732699075593 13.471997610259272
Sn 9.272467243467752 16.903716159038265 11.822465235412034
Sn 15.772989299373158 14.412152586811048 15.059979001355947
Sn 9.048820498477363 13.936902825610634 12.855618695125493
Sn 14.578958624825423 13.18392164123192 9.32221083806638
Sn 12.914795461471364 14.938407226390979 7.617593267576285
Sn 11.141198330408725 10.991797604843317 16.306315221119526
Sn 11.36645061313141 13.640777503318258 10.126900105331538
Sn 8.445496193487886 14.59636061007958 9.878197703432395
Sn 9.347635173277116 11.773114614135936 8.738002490554143
Sn 11.944488307075645 12.156671359906822 7.346496306478346
Sn 14.14570153380896 10.483627092851178 8.398904187109938
Sn 10.188372064425671 11.190335337671058 13.55099259571822
Sn 12.975575833522988 11.454729501013873 11.54651232701581
Sn 10.448759137422007 9.862074835787492 10.740092207125956
Sn 13.81003423369699 9.749800190125516 15.442491281047394
Sn 16.12277034599726 11.526057445312421 14.901478882133858
Sn 8.62145954947878 8.730935473205422 13.010691716091976
Sn 15.265199775556681 9.882897325892424 12.559753308650903
Sn 11.002617541169135 8.133311793912092 14.982469653629748
Sn 13.350633844016057 8.43569787035735 10.499876066452519
Sn 10.900310470069433 7.092006012782192 11.978578289854736
Sn 13.676290936614782 7.361329400817188 13.551978252079818
