24
Energy = -83.06505458 eV
Sn 14.555703155746787 14.79941167152097 7.387986956844771
Sn 12.335846688847932 12.760261196416442 8.684336828114285
Sn 11.667022600908053 15.455848922029947 7.361267625929234
Sn 15.145345483901243 13.505469998486618 10.034017284024735
Sn 9.889219786226656 14.823472628390956 9.68304176751849
Sn 16.635996924516203 9.946156928145408 12.137980871142572
Sn 11.030511653149265 17.222333878710078 11.179686364904017
Sn 13.146387131674102 15.633973815759344 10.036003025383783
Sn 11.707320765688639 9.007606470997063 12.081448859860352
Sn 14.481402416922794 8.127285932037315 13.320647788700084
Sn 13.807757668711265 11.049690506569352 11.365607977418597
Sn 17.120670363103784 7.9418541324292695 14.456540811113692
Sn 10.873208773029322 12.584594735313763 11.553662413739078
Sn 15.932080838476047 10.51403269913542 15.170373425444184
Sn 10.772059532944704 15.15063888681997 13.27767694652467
Sn 13.099512398217026 13.370289197498964 13.817985083097193
Sn 15.986752092270608 12.841601613949845 13.031129142927812
Sn 8.804916939609637 10.545690648490016 12.339587271009917
Sn 12.98614656203875 10.470467155408244 14.545931971971104
Sn 8.14664117729082 13.498751193829944 12.860794975387826
Sn 11.202875464380956 12.181586156232457 16.16566248345833
Sn 10.222750577271958 9.30225742562874 14.8710454037145
Sn 9.11939533947168 14.403084695050651 15.665876271730006
Sn 8.175518349643495 11.533680268689793 15.214864821927149
