24
Energy = -83.73693391 eV
Sn 9.693127754976855 16.756006018133167 14.419779940618868
Sn 10.991632076164205 16.60716625245964 17.19199665494057
Sn 12.597468026747773 17.48983265966102 14.414875176664227
Sn 9.025020030430237 13.994577766692204 13.265836653386248
Sn 13.705231489433661 15.314677703006435 16.474624095595125
Sn 8.746852152412883 14.571830822409096 16.350199065827113
Sn 11.40016342175768 13.527683714987674 17.622534722641998
Sn 11.82418854935343 14.92417563209711 12.931378282212364
Sn 10.151206080639563 12.002824525236045 15.283230048624324
Sn 15.160117349672339 10.798376428115349 15.50518958035784
Sn 14.512507917569495 12.467433867425141 18.00668274255963
Sn 17.383294932187955 12.565408782761773 16.8114370004366
Sn 16.71987255580331 12.795283293263244 13.812995911207983
Sn 14.50087681762201 13.379552513785947 11.717178187011042
Sn 16.26699728507039 14.753131133482942 9.440380313082306
Sn 13.00980181653304 12.826133662521423 14.877496489091964
Sn 17.596036889876054 12.404628802051441 10.94513542547202
Sn 17.849467736536045 15.250124487969192 15.464927080386632
Sn 16.1456463018375 15.080249723768702 18.129732085947122
Sn 14.089694444621944 16.401976098266225 11.387262182658889
Sn 15.345281540718453 15.641865826831731 13.923872674872388
Sn 19.621819610045403 13.674512778853284 13.19958607819933
Sn 17.76079049921949 15.737589464511657 11.766430094788763
Sn 19.781906771491034 14.329982192981333 10.197364522021774
