20
Energy = -69.38154909 eV
Sn 10.860503349750774 17.42348379222522 14.73012148319359
Sn 12.334328036392698 14.984677648543096 15.375885296780023
Sn 9.346570630485246 14.54918055589877 14.78663960101505
Sn 9.803991089632758 13.161013535875526 12.04993513220018
Sn 12.976725908657539 16.412096973862017 12.5357303455949
Sn 9.839364644505705 16.29352098389893 12.206651134893773
Sn 11.179162727572752 12.030557642187459 14.678981178700806
Sn 14.878392615253496 14.647489330457605 14.072318015998219
Sn 8.862525123739177 10.67411950084156 13.350555219256458
Sn 11.629633824607069 14.63223159862646 10.25238809458117
Sn 12.03683062392085 11.445819131441633 9.425627138282128
Sn 10.91762809326734 9.65098655147808 11.49562593616769
Sn 10.939955179582235 8.586250312925518 8.656371846317468
Sn 14.101810336487874 11.60486799235163 14.77642015337572
Sn 13.119397587376882 12.833662438515 12.2144109815841
Sn 13.458540653930728 9.26084105990391 13.054466612391922
Sn 15.04715642978373 10.73031589992458 10.543702362529025
Sn 13.720617597498183 9.767748015890342 7.79500332968284
Sn 13.337637382523765 7.813830887537639 10.104087631200304
Sn 15.696480165171282 8.043804297977093 11.730864876047136
