22
Energy = -76.28703164 eV
Sn 17.748479097201628 12.062593053068527 11.310080080274204
Sn 15.591174668611703 9.775108270068992 10.84548254157695
Sn 15.650215244233108 11.679443879053174 13.16635638424319
Sn 14.99032618097207 12.114939903893678 15.98026595056894
Sn 16.6804163806148 11.376749213976982 8.624922488686918
Sn 11.716850069367997 9.221388402962521 13.11600293937572
Sn 14.907942963725185 15.094609735972751 15.13537643335333
Sn 15.013837063800592 13.094218418676942 10.31989789293274
Sn 12.401298883043733 10.605133071265463 15.981387795874221
Sn 10.103412813422207 9.357954965169673 10.327299783112927
Sn 13.483538597996434 14.252857111604747 12.781021429738827
Sn 11.221804231903553 12.173204102292036 13.575425478286068
Sn 12.150218917502881 13.608418121164393 16.040953962487542
Sn 12.020786354373746 16.38081075737564 14.938441999518808
Sn 12.735470502172154 11.044828840160033 11.035813034809475
Sn 11.869970803056379 16.420001285342916 11.61989069646815
Sn 8.773409161985848 10.016661411497541 13.039258237678425
Sn 9.49416411061833 15.927309776184906 13.431860493293994
Sn 10.423855992187534 13.879662661887277 11.100357400692047
Sn 10.910557499249618 11.993726990002132 8.872998013622512
Sn 8.338730860903745 13.054173417098262 13.172615658538756
Sn 8.164774911351595 11.660400958377059 10.389011916478688
