24
Energy = -83.25125698 eV
Sn 12.263290667007604 13.497606438132735 13.019418155147106
Sn 13.095378411344411 12.851364979038399 10.232270340179088
Sn 12.25081812527155 8.541802272759735 12.338093358965613
Sn 13.648520287656346 6.822341811736327 10.144346971897676
Sn 14.340113206367686 9.779500587142234 10.262890196276558
Sn 10.511246226060138 11.208904215582393 13.28707655134274
Sn 7.706061438081625 12.573692062694041 12.101553438373482
Sn 10.115647619768252 14.016296820053375 11.066198578832513
Sn 10.782785465208299 13.07669502206599 8.19162857977165
Sn 7.871611678228735 11.12316701420971 14.671523650682753
Sn 11.718433299724095 10.348814403895192 9.121908848203372
Sn 10.735871767155652 6.327273117140737 10.995253342905139
Sn 9.527027402570088 9.41130889646709 10.887230816584518
Sn 13.4783165875451 8.531778377626189 7.39141867187138
Sn 11.04100579820437 10.75857968188221 6.200523804154474
Sn 8.274344857566264 11.317552214691325 8.836188160766119
Sn 11.866304781333664 5.829583120222238 8.011895164462457
Sn 6.813923039782959 9.504048395223657 12.453559856268214
Sn 10.0791562222187 8.08320126601517 7.893451160798976
Sn 7.682696186249203 7.005909209896187 11.06389405162164
Sn 5.561348908403158 11.339686531798224 10.46121630060393
Sn 6.882747186487917 8.287010648603474 8.440537775119685
Sn 8.251594955285636 9.478020086275821 5.967594828915142
Sn 5.668069647305077 10.79212795825765 7.479279713118854
