21
Energy = -73.38828492 eV
Sn 9.54578131581458 5.226887643924301 8.720545993012886
Sn 12.495230874036883 6.1767950099724285 8.678213663154818
Sn 10.412060853019351 7.091614093667271 10.881079887874659
Sn 10.546896676539658 6.921419923312554 6.447899935849401
Sn 9.492582003413522 7.201596707557998 13.709183096778153
Sn 12.909993877104922 8.752862834283025 10.416870802163844
Sn 8.157111122080897 7.973767772380337 8.41135541856912
Sn 13.028131513793978 8.761616495003626 7.267492056476007
Sn 7.484246462390802 8.324059197529856 11.726699138736176
Sn 9.853569642100812 10.005224548109206 10.074547382221393
Sn 9.501648826081855 10.10618184358273 13.154495358296035
Sn 10.17781257677752 9.88650020421247 6.8473696656385235
Sn 7.079364377991646 10.908910186676266 9.122601756798668
Sn 12.293319359827153 11.585290246278188 8.715581932073379
Sn 11.943794899509824 11.506547063803696 11.951205954793068
Sn 6.77410823488691 11.401700266542715 12.383566238600638
Sn 9.3050154683719 13.1593998595586 13.071125315856296
Sn 7.781718234185838 11.493489328220816 6.137372741272417
Sn 9.471124664868494 12.827196563191624 8.078664666017435
Sn 7.719686226364983 13.640207355714173 10.510925787609542
Sn 10.833693892634008 14.015966129580086 10.55655980512458
