27
Energy = -94.01540934 eV
Sn 14.98630347941272 11.01148215630433 10.264343462941811
Sn 13.576679465415388 9.992722675213383 7.7978314431842435
Sn 12.957153428076875 9.98733663559781 12.345218276688547
Sn 12.054554631967415 11.962814426369365 10.158772972480525
Sn 13.903015466714704 7.1295169228695645 7.269056917410149
Sn 10.034320980769035 6.688435662337136 13.898173817473808
Sn 14.640310019439742 7.975977071896159 10.05787660175464
Sn 12.60752727016211 6.968830612825125 12.168913416089413
Sn 11.595335331233844 12.240188589988978 6.925930416198394
Sn 11.930485791708133 14.650367321254544 8.865551734422464
Sn 11.622318062231878 7.367281129886376 9.071402492765234
Sn 10.137043282166493 9.971644005414474 8.804086244646685
Sn 10.86160647985921 11.922501199479655 13.288830896925257
Sn 9.870764776369368 8.926979297159793 11.783197106397372
Sn 10.103713552779968 14.272866399105956 11.438017363779105
Sn 7.6703858787932875 11.389460740040127 13.34156661938357
Sn 8.772993975640057 11.402360247937045 6.241701179981045
Sn 9.986816169285484 5.665358478938602 10.977171670801825
Sn 9.572365765575736 9.526241922737002 14.891688162378621
Sn 8.555605193081615 11.860635962194472 10.475693599907535
Sn 9.096867817805077 14.003602510646788 8.223317483349625
Sn 7.317812307027078 9.038204229867565 7.911754005291398
Sn 7.4734160948391875 7.362903037206481 10.480245228295374
Sn 7.160740278169212 8.313232515868094 13.437224110814245
Sn 6.202991492405189 11.920197978251752 8.429852858348546
Sn 6.987949367619701 13.825190580300221 6.276052074820925
Sn 6.01567287592468 10.058760393637272 10.758307962006803
