22
Energy = -76.41983548 eV
Sn 7.1678935613582 10.964061089987018 7.686298111251741
Sn 13.085443603813138 7.724143471823673 8.981380118584433
Sn 7.686698889470129 8.183640969091162 6.04385382239384
Sn 8.517257752947836 10.91312574230536 5.148749892722344
Sn 11.717893163656322 12.850605305554469 8.192205999703464
Sn 12.017665165039448 9.615119450254877 10.976868117118414
Sn 9.182450055726425 12.277895850188735 13.639280209808277
Sn 9.871568313811993 9.285903277154532 14.115696499904576
Sn 10.96028186113492 5.928591760986515 9.952940508996935
Sn 6.246365714437296 7.309602393553857 11.222309915711888
Sn 10.775548424213781 7.240237471358996 6.986809572076715
Sn 7.291566139445236 10.006852027463646 12.486166388343934
Sn 12.141200790872986 11.322661569354663 13.40357552755219
Sn 9.281926208015145 10.047807195535121 9.816402156552503
Sn 8.288943481696577 6.952571601655836 8.841423658615488
Sn 5.719418857141691 8.548474081072191 8.349803933053284
Sn 13.82594589616374 10.631391248450436 8.377766961484665
Sn 10.61126961751062 10.211186635850769 7.148999989018007
Sn 10.613655713754001 12.627046495858862 10.983367408911551
Sn 13.66642449720551 12.433487365462058 10.685617111276624
Sn 9.210658475862873 7.674095775603473 11.697386076021116
Sn 7.6100924451905 12.378754901179413 10.737341364327422
