28
Energy = -97.84597147 eV
Sn 12.587763253109564 16.079375173403832 14.152136601327596
Sn 14.714623011559993 16.322688303802614 11.783307138056744
Sn 11.741420032713933 16.4069113160645 11.075462214606514
Sn 16.491477741833116 13.906666823213579 10.876594202737895
Sn 15.202308478454624 13.95680430037233 13.753544659595093
Sn 13.233027010797876 10.620473615184629 16.40097291726401
Sn 10.37543803661278 14.774048902537242 15.81162464063699
Sn 10.041788331207044 11.84363997401843 16.77747799525561
Sn 14.836699242043734 15.536381058743013 8.808247002139503
Sn 9.465386629613125 15.882896241775189 13.014196322964454
Sn 12.04428869423988 14.523577337180644 8.505550097812739
Sn 16.510800709750402 10.87251279130819 10.931053317482167
Sn 12.500931369204837 12.849337226545124 14.641358251391074
Sn 9.959366426921722 13.757040398030957 10.940923521325614
Sn 8.127798974737676 13.35877918368922 14.400222203380626
Sn 10.730286546322573 8.961712419718246 16.043428101494438
Sn 13.285829859533912 8.120509350325108 14.545146352275793
Sn 13.262828911869157 13.350821749621735 11.3246896704089
Sn 14.115475472913525 10.399274207022849 12.646033165006685
Sn 10.474282638118108 11.678293548583174 12.933864814379518
Sn 9.70650291970975 12.92382689244901 8.129588069353817
Sn 14.774307348242388 12.29277178249578 8.715726657397205
Sn 11.787236181535375 10.106275891599228 10.789737988673863
Sn 8.367444241382033 10.282056772932892 14.608092802119966
Sn 13.125209979133562 7.496393190595771 11.603298226123075
Sn 14.56794912570104 9.141948844991617 9.500051604249458
Sn 12.053245683012918 10.972838437410896 8.002353166054144
Sn 10.35290815501953 8.27048194416115 13.015763915716512
