25
Energy = -87.18084783 eV
Sn 8.46008598301592 13.21818300415421 11.843543934340584
Sn 10.957553610721849 14.103292502391188 9.462482699235498
Sn 14.016375374718887 15.00154566229186 8.970237833167342
Sn 9.40585934955799 16.06771157635547 11.176573310675648
Sn 11.960607625215811 17.253715237473553 9.87164697209979
Sn 9.190200391303117 15.197488133679192 14.116972543776669
Sn 15.580290067950314 12.262338015798129 10.32310131853925
Sn 10.962167354261306 11.50162048063894 11.046545843648113
Sn 9.502395000026507 9.910453115247453 13.119593648879402
Sn 13.072838581704422 13.66526204283125 11.618367058630263
Sn 13.25205581698247 14.070759229806091 14.649471039767912
Sn 13.698746752408766 10.18494378390269 11.275835686438349
Sn 13.556254525957069 10.742696335457243 14.18695172490438
Sn 10.650151216458386 12.574067127901934 14.090641677493014
Sn 13.880715444757016 7.691062724279856 12.971874441561727
Sn 11.806675571229137 16.39232731949687 13.230424718248573
Sn 15.837921711439435 14.006330719796994 12.890635318977075
Sn 13.020951652961097 18.808802085394575 12.204401769059201
Sn 16.058877218084042 8.788956018075998 14.744747176149524
Sn 14.776045441553096 16.635264480261856 11.276601553245126
Sn 16.906450821755307 11.093794722871518 12.84648763742807
Sn 15.826322163026322 12.215143553586481 15.444913055954219
Sn 10.812033181165877 10.172879562157583 15.900097865391952
Sn 11.080236863599449 7.533281219826456 14.139153996319862
Sn 13.352870698588413 8.345746146948189 16.053696334630164
