26
Energy = -89.46461103 eV
Sn 16.032184599166076 9.723532548088906 9.884572258869325
Sn 14.037082132150783 9.636163271878221 7.786109849496487
Sn 10.476922697374386 11.513947722494297 5.928713436739278
Sn 13.399194597190444 9.183360611073837 11.00858624650852
Sn 9.666090463733722 14.306046605368678 6.901759595807515
Sn 8.589749740663272 9.433384996996406 6.962189028122159
Sn 13.985744623889056 12.12605002904743 9.706765672648789
Sn 7.467572864970358 12.246743523478731 6.428506284689713
Sn 13.841029855350978 11.575296583843658 12.731868933954578
Sn 11.208518290195759 10.302060495169545 8.589910009964866
Sn 10.837009149210495 13.2591155495805 9.348432967938853
Sn 11.699864066689827 7.314902336102943 9.364740391562414
Sn 6.54569808610823 10.751094937670857 8.954729932040339
Sn 12.368821792652554 14.301409701754537 11.67462077421324
Sn 11.41151232515882 12.9295299612125 14.238818445507066
Sn 10.203173278620795 5.319211132917326 11.679421345437353
Sn 8.645270613370549 7.753226596908044 9.82404503097191
Sn 10.369917601002513 8.212296338056289 12.282204897478579
Sn 8.965718938298048 11.095281529111915 10.550011528474682
Sn 7.66202534063794 13.685511431673422 9.243282652215777
Sn 9.283237684316786 14.12685335713931 12.125929540166704
Sn 11.534351282511079 9.864239528932174 14.386142652496156
Sn 7.470584450593416 5.12268073833166 10.552160145852117
Sn 7.6418913342101344 7.103331887191943 12.754177601407614
Sn 8.874887218350288 11.425013283539293 13.404545890443096
Sn 8.493243652262153 8.905649907787106 14.943033358013366
