23
Energy = -78.99127814 eV
Sn 12.887993213857403 15.212452130876297 16.38399474097839
Sn 15.619914569481455 14.04669352555004 16.237319318604726
Sn 14.76372640524952 16.153345438482038 14.060524500769741
Sn 11.240700016613276 16.86864320289478 14.232646350434043
Sn 14.572339873597956 14.526367886950627 11.433615926405507
Sn 16.06596109800823 11.734866133029874 11.50074808310406
Sn 16.931500121071632 13.902029545726801 13.45007182793819
Sn 12.3933730738139 13.935359418932194 13.494975604959894
Sn 12.999104129528202 12.097133478923801 15.930206879059732
Sn 13.412839838768898 18.205681752734307 15.66103677869538
Sn 15.850308323350891 11.26781309442085 14.732272147282474
Sn 10.433659783377964 11.728671994039447 9.653200353169263
Sn 11.789876888437785 14.306900024950403 9.979357431427564
Sn 15.683874877665557 8.644861976549638 12.825312760121705
Sn 13.218854802858166 11.211630779389193 10.566563181021701
Sn 12.882573336561903 10.527215836227548 13.40204140907457
Sn 15.263089197006797 9.11142827948941 9.851046653526287
Sn 13.342434341504049 7.766479634082608 14.390396682773348
Sn 8.873594527276104 15.017864032498544 14.25497637019615
Sn 10.27110520086003 16.34586826260192 11.561484510031114
Sn 12.961583213268284 8.012572116336408 11.471367352897554
Sn 9.769902093149714 13.009020353885036 12.192607620984084
Sn 7.652479766772568 15.136057018637084 11.607238863873713
