22
Energy = -76.23526573 eV
Sn 8.908340596916885 8.458615396963712 13.15983619799129
Sn 9.039462723134312 11.428205982534818 13.002791421153999
Sn 13.197771949928503 8.869072036494765 10.393036536843823
Sn 10.188402841907287 8.065064534936212 9.978217819083897
Sn 10.466913837289647 15.627909608747865 8.499434789477334
Sn 11.447386206917225 7.054766254707079 12.51581467270883
Sn 6.328944962867709 10.056591050278245 12.533129253393337
Sn 10.616364610296866 14.490869205159735 11.256944066299424
Sn 12.956300205144142 14.130828090164995 7.661106552393304
Sn 14.931045937877036 11.2288237036895 14.747481147813652
Sn 12.112045495254769 12.545278881684869 14.154729538630987
Sn 12.671975948217597 10.959004425686285 8.105016888199646
Sn 14.848529455677115 12.714339417420273 9.55367174619444
Sn 15.41310007679488 10.250017082869205 12.08123952480943
Sn 14.541309051426198 13.360857144035085 12.539281134698177
Sn 13.186174624961092 15.541553049543591 10.32009146411243
Sn 7.1498192267358025 7.966158013870931 10.67899881290361
Sn 8.496534489075652 10.61283025473869 10.301613350407468
Sn 12.56288304504048 9.687366316670113 13.327583955376719
Sn 12.238517397249604 11.895849802790995 11.073413751967804
Sn 9.52245571989208 14.091359977819542 13.982891774802075
Sn 10.215256696113975 12.608741662370477 8.776726754366559
