27
Energy = -93.78881059 eV
Sn 12.532587932744605 12.787513296346283 13.72095314641711
Sn 9.127358964801562 14.998529629308123 10.164144869541268
Sn 10.92966764894416 8.740766064812222 11.19457982320949
Sn 15.533418297482644 12.806782458396961 13.383629223155653
Sn 11.276447725208234 10.439464653640208 15.343846966681639
Sn 10.914964751941502 15.068961704066647 12.519026904655208
Sn 9.397000955788116 13.230003398750291 14.462479120938168
Sn 13.94384394905693 9.943107978360123 13.991478663827078
Sn 15.272445010701555 15.870596168651979 14.258837987459552
Sn 11.617429442646813 11.691884145199118 10.987428890808179
Sn 14.693410069493792 15.916374891066031 11.263966565134318
Sn 12.7632694269167 17.23507024561564 13.276346380172226
Sn 13.229364167074596 7.27835429420775 12.773044440406785
Sn 15.864181034208373 11.141383938291005 15.838645421969026
Sn 12.124150487661096 15.109156994353388 9.605227997493268
Sn 11.347124849907738 12.979052924491043 16.779402996578355
Sn 8.547157810374634 12.3992440601719 11.5114698652254
Sn 12.717032956026584 12.514295878692169 8.14295630335239
Sn 13.096414621252583 7.100326575719103 9.764000527021045
Sn 10.412364430843162 7.893581029948156 13.969026684293318
Sn 8.519537780042338 10.475874480130875 13.783832694730501
Sn 14.229605976676863 13.669063690675912 16.15300247031899
Sn 14.081134603894197 9.771079433991101 10.830571671258348
Sn 9.760477745618449 12.231844256591403 8.627996823396321
Sn 14.739018126820095 13.007630528600043 10.430311834286677
Sn 11.646095129811188 9.568428476415363 8.42294610595805
Sn 12.862910040873007 17.958863953465325 10.353945324125894
