26
Energy = -90.37859365 eV
Sn 13.121848381264737 8.664960912323458 12.851962718148215
Sn 15.068893478443535 10.210589325221772 14.813562574301548
Sn 12.678925021809667 8.44474344362337 15.843583494166033
Sn 13.130848613109855 11.812698992612042 16.750680456864803
Sn 10.629462282991216 9.882373309916261 17.405440035016095
Sn 15.544436537467162 11.877337172754821 12.275515578362478
Sn 12.542184886813203 11.513048835885636 13.665933606312793
Sn 17.359891010227855 11.621150046912508 9.917564255165221
Sn 10.179017976902065 9.201301046419497 14.166823457025666
Sn 15.689653616063445 16.16371922499221 15.523785615709631
Sn 17.500648741254363 14.296562444108504 11.159642104188675
Sn 13.056621292429641 17.146202916646164 16.701718986896253
Sn 10.165676055800832 12.159451233179661 15.656585650291861
Sn 15.166892479578179 19.203686135139087 15.544315483534536
Sn 15.547533875178825 13.63839256571283 8.772106056669532
Sn 14.848791018890672 14.83068818841659 12.849688371564138
Sn 13.418600528825996 12.13905713804119 10.307090135604161
Sn 11.074489781134696 10.278757061610817 11.042544464355371
Sn 12.667275614290144 14.485745636383065 15.034124325710684
Sn 16.18371905513576 17.857677127183685 13.049400350470664
Sn 9.523856283861711 14.599084481672447 14.14999227974894
Sn 8.951201411185943 11.882949746933749 12.752860529547245
Sn 11.417165465364912 13.737868773909744 11.98765581953501
Sn 15.593492964550911 16.381436728083816 10.048477842638677
Sn 13.203463880479035 17.75311462213565 13.854079629423996
Sn 12.807814787693019 16.353407395383183 11.279627038363465
