24
Energy = -83.34704953 eV
Sn 17.340936209020494 9.891374964082715 9.781128202974175
Sn 16.41978901895683 11.287758745720993 12.131350803325226
Sn 15.223621176308283 8.541676489250088 11.34604643492486
Sn 15.597217515792183 9.301681691843852 14.248921760006912
Sn 12.810262915084483 8.11027859398634 13.141066455332272
Sn 14.583747309361323 10.912834928938146 9.209441664234394
Sn 13.614066510106086 14.920789525052756 16.38098361595107
Sn 12.270371846043972 9.287162628704923 10.342497312852348
Sn 15.063772538168969 17.226248328684413 17.180542358180926
Sn 13.037998426251612 10.259855080685593 15.529296790717103
Sn 14.32381766562199 12.629218886563958 13.943323679639366
Sn 15.035232110973107 19.066217880481986 14.891635982151902
Sn 11.357982215756552 13.01321246678891 15.795391162112267
Sn 15.287302065371529 16.25442716462424 14.090382394382665
Sn 12.511388935908792 17.554132722604695 15.292685950145923
Sn 9.461462670996296 14.495015200904442 13.919817616742959
Sn 11.437347323830805 10.97731919002556 13.081790528945204
Sn 8.55582665659543 11.701697165010664 12.950803857640809
Sn 13.053563187990202 12.599215948383256 11.117107555697185
Sn 12.501658576647364 15.063756411421586 13.347721591927508
Sn 8.483604245212382 14.079563747884638 11.01482571376324
Sn 10.072539105446351 11.558736397076483 10.220686815655174
Sn 10.46004960021265 16.304109608466746 11.607481656830773
Sn 11.220933014968011 14.251276273853561 9.439936459555833
