22
Energy = -76.05411028 eV
Sn 12.558895556392601 8.105831808888995 7.205710442539484
Sn 10.526104249558184 13.71713585645167 7.118408901815183
Sn 13.60302652458926 10.180946770050236 9.423848847783768
Sn 9.70767261428501 8.444680043975335 7.657316219662593
Sn 6.84123624084407 8.329433448155557 11.26484611545968
Sn 5.194144620795038 7.8881416301604075 8.816001172934719
Sn 12.522908045899454 7.10542292984112 10.044738940133769
Sn 11.702189434925543 10.367677520475535 11.663020091536353
Sn 12.817367600407334 13.249078778450674 9.001272495713955
Sn 6.822121510508058 9.009428400958999 6.567988779651305
Sn 6.182742307188179 10.823259018635321 9.250445764433177
Sn 10.034219745081442 13.92712437007663 10.152867127018936
Sn 10.427776899243268 9.828450255733305 14.386890613626024
Sn 7.649389005549641 6.256060625751225 8.386098527782126
Sn 9.597601279912874 7.163264901434237 10.527881324581406
Sn 11.819327823771333 11.000405081897126 6.962514365371111
Sn 9.039501799912287 10.265529316035659 10.318240841002831
Sn 11.67413040480822 7.5446201297689 13.029858625818994
Sn 8.624473889762093 7.506011195130575 13.554714586547691
Sn 12.329824330563103 13.364562754556598 11.967191124647345
Sn 8.632083453814955 11.306403337776796 7.536603687215502
Sn 9.421544415544142 12.20991551702612 12.674662744320347
