24
Energy = -83.92122929 eV
Sn 7.63224786388237 9.40714280362649 13.923924234916141
Sn 6.14256143679336 10.454620998365815 8.942630422218556
Sn 9.905115013755161 12.15720585726725 5.4894296741264315
Sn 8.470254742260712 9.313692876559172 11.100796544535795
Sn 12.751106794556872 8.595418053522172 13.651504577985676
Sn 8.13047193656354 6.559129817218592 12.825903570842863
Sn 7.543379687865954 7.785648900734727 8.183968635572889
Sn 7.395138887602549 10.455438514636318 6.1984868195197524
Sn 13.12878640975505 11.830096436285128 9.575338401279726
Sn 11.736355477529209 9.312186714955944 10.957975305618568
Sn 10.178090001085751 8.876951609027861 5.896739184283614
Sn 9.887067241073291 10.62962208099724 8.521328942199736
Sn 11.282385385005576 6.0319944797001455 12.842043595081513
Sn 10.448240824045602 10.53234941763229 13.578662777175639
Sn 10.419252149729086 12.56642644733019 11.206286129311662
Sn 7.7926320066934185 12.980783419473145 7.9839976690034815
Sn 12.56042432643435 10.978565200164716 6.616959329543887
Sn 10.07843076485135 6.207352707014721 7.4840075382690205
Sn 12.20721222528569 14.65373232650125 10.294343751311258
Sn 9.972532196145652 6.8346927970669 10.320326574282912
Sn 12.36183542445374 8.212806401743446 8.119128880574223
Sn 11.05090260860365 13.622803827432739 7.84804062308491
Sn 10.016797101395692 7.725761071722745 14.959188584545098
Sn 7.452260839639666 12.292668419748903 11.00558888486331
