24
Energy = -83.92714731 eV
Sn 18.34264237897148 15.292204957009686 12.545109103092594
Sn 16.914091293734064 13.352444676136264 14.089659673702833
Sn 16.0136873320731 14.01470246298972 11.030856541367678
Sn 15.813446946057788 16.795876997928673 12.350419299792366
Sn 14.03016024849891 14.567506917723898 13.45424714231412
Sn 16.936723529991312 10.065714874123223 14.10787335291832
Sn 11.601838250399151 16.32306768540927 15.884127594671549
Sn 15.026353043906399 17.017270870719216 15.271785632371682
Sn 14.40642706300412 11.133716168552322 15.381790387754204
Sn 14.778999643948788 8.076145755999992 15.174720735041161
Sn 15.026369967717951 13.960870841391705 16.38472001391861
Sn 14.946712441127783 11.420619423276383 12.261316196154365
Sn 14.208578689582126 19.327466171486723 12.813533978011952
Sn 15.413929464423521 8.339642622923437 12.05544099191266
Sn 11.098321200816999 14.430605568548396 13.192815764567488
Sn 11.998765394978832 9.46838676433112 15.766205321017193
Sn 12.789067995869791 19.14241158915077 15.71363361150189
Sn 12.008467852316786 13.337977548830771 15.972176189079905
Sn 13.036566176093991 9.83790790842567 10.670688194575012
Sn 9.775485513973301 18.518094577851464 14.93345190379954
Sn 11.86336880144763 17.47516406559197 12.974167850139198
Sn 12.467552457537124 8.162017671321964 13.08997708282308
Sn 11.997326829982743 11.28423986948526 13.231499422380718
Sn 11.320051026915197 20.459503509157358 13.374495138438588
