21
Energy = -72.78268653 eV
Sn 7.570884400060345 12.026287231167531 11.797257865364585
Sn 7.54280721870398 11.167059123108253 8.19320076638536
Sn 7.219473008009295 8.910167865331706 10.845565173070497
Sn 7.723048319157639 9.793094436979334 13.723491552550088
Sn 9.792865598697269 9.704762086306914 9.502018439571984
Sn 10.176356810268208 8.728022461101848 15.182579798448613
Sn 8.890880164464958 13.822207908508387 9.545262776744424
Sn 9.829608423444471 9.788271541612994 6.448410601244631
Sn 10.132990229002344 11.638923585737649 14.031705220796676
Sn 9.628377836833963 7.0285370355926835 10.809276327865714
Sn 11.266510681386976 8.831342193912652 12.472272976108838
Sn 10.893553338337362 11.932664944508689 11.034653523968009
Sn 9.71086922576102 12.870106597335576 6.744164366983101
Sn 13.047017880493398 9.66258474599135 14.847741974647903
Sn 11.312233339808685 7.460459965128074 8.186846015906875
Sn 11.881554189287494 13.873541212159765 8.67166975811349
Sn 12.777218957990616 9.928527768891895 8.939460410613922
Sn 12.453819491338283 11.623107370478804 6.520979701635996
Sn 14.102702587711729 9.614751847771338 11.785994475377848
Sn 13.16836094484943 12.247714330788321 13.335062944516647
Sn 14.008318656429017 12.4792696607512 10.527111251705493
