20
Energy = -68.82038305 eV
Sn 17.01807573643707 13.032061068449805 11.271983804588407
Sn 17.73919179722032 14.833881033393379 13.404273258206343
Sn 14.973624341916485 15.66472650611451 12.389448531116946
Sn 18.53582955336862 16.443382614656876 15.686718187966386
Sn 15.795219876553997 15.30780187602172 9.649218893338709
Sn 13.934926751607003 13.056581854124268 10.364480202846476
Sn 15.606260986716862 16.546440750968568 15.224921704689486
Sn 14.989812644125216 10.688407743122433 11.913460398956488
Sn 16.984676755856434 13.980831469720718 16.456740872884996
Sn 15.568761175508527 12.537855917950713 14.191137327093248
Sn 12.358422219228144 10.651849776083772 13.613741849260443
Sn 12.736153278577408 13.81117504148696 13.150810802691252
Sn 14.166569035220007 14.833121840188994 17.177259955556032
Sn 11.521380150080068 15.494112894590414 15.212936605506409
Sn 12.673719468487946 12.57604076830156 15.962247288106573
Sn 11.051981633461729 12.038672195230951 11.306319554855223
Sn 9.690764262527896 12.98542496251124 16.187351471293614
Sn 9.29302997933055 11.080345685628455 13.892450406619337
Sn 9.37331235963898 14.180094771261713 13.491947017352638
Sn 8.095008308138297 12.644492842386697 11.497617146382371
