21
Energy = -72.192858 eV
Sn 14.65479624899593 9.833260633101563 14.186522889682792
Sn 11.860594937204688 10.825825589414311 13.77974270652606
Sn 12.955473772057491 8.044480137844248 12.598730364409308
Sn 13.953196295657502 10.893655484795632 11.439361701193828
Sn 9.11479263439527 11.721153573313734 12.873345599741079
Sn 9.687733733330967 8.645821695215941 12.836618025103084
Sn 11.547323191477561 12.975461569498624 11.383088573738805
Sn 10.977266068414563 6.23641132930783 11.227166534613495
Sn 6.3158672647517164 11.720960139014919 11.546588614586394
Sn 12.215617394612616 9.013260612573317 9.874283141461179
Sn 8.689233108079476 9.874055737316144 10.216937697260198
Sn 11.792055320600273 6.709708500644817 8.058176376291147
Sn 8.934752993838979 6.314636771370802 9.113516639732195
Sn 8.50564145902082 13.085157809291891 10.016217643340603
Sn 10.856993382959775 11.461359596230801 8.731315403410395
Sn 6.775798276883437 8.437395490063937 8.346671363840937
Sn 9.72338858981576 8.759765821017632 7.278533091612001
Sn 6.090866182993068 11.425420246545944 8.46804501679106
Sn 8.267511004933622 13.043941284736281 6.966498620555721
Sn 10.383522946389228 11.290612379470486 5.785073535418765
Sn 7.3713212684120215 10.238705550953854 5.907982798490208
