26
Energy = -90.77673761 eV
Sn 13.275442111169175 9.763402542409484 8.576956525341128
Sn 13.885938662499013 10.816806103430894 11.84175248285787
Sn 14.170294624089932 12.448950843461281 9.208884107293771
Sn 11.456721188408963 9.267604326785005 10.945299391063102
Sn 16.268105800843788 11.725789901379406 13.473843245245956
Sn 11.35137006331892 10.548783653050124 13.730056423239251
Sn 14.055053796624742 10.588646168460867 15.20694300671537
Sn 11.01041229367334 11.625495448249566 8.992957964887164
Sn 11.712786223810802 13.117671805532513 12.396358080982811
Sn 11.105329132683961 13.07205436154584 18.624146018903183
Sn 14.552432590136034 14.081154863576518 12.484680442138743
Sn 15.221897232552791 13.498702465570773 15.750642069876603
Sn 16.505911150370068 14.174181559300663 9.824947394112911
Sn 16.22322912355904 13.725148266908525 18.566919028857207
Sn 13.8396126329829 11.804369941449355 18.127878370230146
Sn 12.030042479118185 13.223423474262528 15.759497479858345
Sn 14.341659098877784 16.503819300289184 10.496797733852327
Sn 9.580740307475 13.778301247660886 10.383099889512879
Sn 13.407340985158546 15.847725721744421 14.96936885692488
Sn 16.4330118081273 16.79585383795538 8.513616079207134
Sn 12.137484284897544 14.71440406793262 9.493110665862668
Sn 14.421183594644578 15.018944900934644 7.429340688071222
Sn 11.65706181622553 15.859297822846639 17.524255467349168
Sn 13.563327439218492 14.41471429371429 19.870346561838247
Sn 14.901278696806258 16.292281604192056 17.60417463226051
Sn 13.0708516842443 17.332662489379846 19.635287762350007
