21
Energy = -73.13991915 eV
Sn 10.396609808069783 15.666499442487657 9.694296323248055
Sn 12.159028764715476 17.60691665396949 8.359752725442855
Sn 12.772888539361603 17.30117197245745 11.156345352116743
Sn 13.575225526229033 15.045149393675684 9.078154841677101
Sn 12.932125415215184 15.045334698465135 14.059031396373006
Sn 9.961462012903722 13.651178805292313 13.307878166361947
Sn 12.157033539725122 13.581786138668239 11.307419278421524
Sn 10.53000833704954 15.890821922991702 15.447546626773816
Sn 10.116978580542119 16.69040444884098 12.572770094692725
Sn 9.452396985802693 11.080949423046631 14.733461011083959
Sn 14.928007482593946 15.175757211975148 11.884454159319462
Sn 11.291397297714992 12.963336569542546 16.15551105773938
Sn 12.599997573543673 10.31813033025248 11.243986480623366
Sn 12.242789435428762 10.523934422780744 14.184593909450923
Sn 14.600772372729764 12.15865152498281 12.66201929803929
Sn 14.387148222240214 12.453364925962077 15.63799193945708
Sn 15.620526559004684 9.54838225793392 11.459919624270798
Sn 14.31499685098753 9.386537838885184 16.027252420429445
Sn 13.393350080416894 7.884246593334088 13.059700438823825
Sn 16.766346249638755 10.767867527910065 14.359735730869854
Sn 16.152486638050107 7.890788770390266 14.038195774602817
