27
Energy = -93.66598302 eV
Sn 13.982484463602523 18.3166191855668 14.347668208661466
Sn 12.204614917617999 10.007750970575275 16.544833809721137
Sn 15.305181571933796 15.57685437379536 14.975426728918192
Sn 14.959255788834309 10.19187078198522 14.924980495780513
Sn 12.308359185220695 12.566420007996342 17.89292387732815
Sn 16.07761769617628 12.71939822544656 13.41443375872698
Sn 14.701791798226298 16.357807732316797 12.075812435650002
Sn 16.33328466381604 10.039018770657606 12.134250230140923
Sn 12.207656475242377 15.900223687934714 14.452383695149257
Sn 13.57405700984812 13.077578211391192 15.31265859711323
Sn 10.840550516041274 7.58331828254013 15.494997347119922
Sn 9.624521277296427 10.050254604397217 14.466653023909192
Sn 12.684700744327586 8.867875509885007 13.622064832510548
Sn 10.266194499868043 12.746165731201163 15.714016825757769
Sn 14.078343060826054 12.641689502427052 11.254943712064641
Sn 12.16081703431855 18.182379756325485 12.096677626771246
Sn 11.599505129215244 12.195598122256927 13.03438537971903
Sn 14.834333445201631 10.06930907980745 9.57645107446085
Sn 11.993203172451048 15.176188056956468 11.565837122348888
Sn 12.258593532243037 9.93507019982239 10.943348906012131
Sn 13.621073530688776 12.929294858863242 8.265833248440188
Sn 9.268341004602748 13.78059392810399 11.854395186708555
Sn 9.277865882004685 10.664416397080126 11.367864914376685
Sn 13.253624851570178 10.113702680426375 7.108063353212821
Sn 10.990429694970056 14.397131030443935 8.923056373353337
Sn 10.90328808989877 11.26598307501147 8.522012307829597
Sn 8.434510510012055 12.856979194526618 9.092380589524524
