20
Energy = -69.0129807 eV
Sn 9.195874870634082 10.804531839365062 6.8928818221629005
Sn 10.076441305794132 7.956583382827359 7.754941939724261
Sn 13.610478509712994 12.838616822402583 8.219253465541469
Sn 14.694161612957522 10.07964127745495 9.176198900374384
Sn 12.157224471058566 10.279587772439106 7.3637766444256245
Sn 9.966073352921406 8.676810943464773 10.932256687241798
Sn 9.113327732984827 11.819434486051888 9.668151717247465
Sn 11.670043516306393 13.100232973535501 10.435421554705224
Sn 12.68528085277569 10.01850307545029 11.754014877344373
Sn 7.592846728519987 9.177671196614439 9.054627537844611
Sn 12.584225630849774 7.917347640658662 9.454800354361737
Sn 11.124338875990963 14.963109999757771 12.714834427319282
Sn 7.210227799464714 10.169270688826956 11.90566721966999
Sn 14.59820608969553 12.375793237527008 11.159413376823306
Sn 6.95726735784487 12.998985039866314 11.393718304689692
Sn 8.452170865292052 7.947096286853111 13.362822069591209
Sn 9.275351060796728 12.738742453058872 13.143034115954604
Sn 12.786391375641708 12.760216480392236 13.570088900611053
Sn 12.989134627189816 10.048834088617703 14.690078836265203
Sn 10.120588217493141 10.18864516876018 14.213672102026692
