28
Energy = -97.81488482 eV
Sn 16.97408121754953 10.296511388996793 13.099756714353008
Sn 17.32422632739108 12.055032875740824 15.956085326031216
Sn 17.986847248114415 13.216912484806164 13.159032225589446
Sn 14.211189124791648 9.23503493614171 13.458886692682425
Sn 14.662650685380191 12.653015594143437 17.18322549933154
Sn 15.361601043813765 14.443576938792571 12.478097812902567
Sn 16.17578348141831 14.88973446529319 15.480664335294437
Sn 14.797512010089049 12.577600431967662 10.277488427656573
Sn 13.17605610671609 16.05820896992521 11.363393285579114
Sn 15.008675214855453 9.65685571510202 10.504454434348103
Sn 14.80628628527968 12.13175149927511 14.180260436956852
Sn 11.964684120445355 15.382202165355345 14.138294650522308
Sn 13.384958908024029 15.494865035634403 16.781961797889373
Sn 13.593593053671649 14.487267929070276 8.39620349090247
Sn 12.102538611876078 9.197075521586408 9.32719375899026
Sn 11.955262038371348 11.97399773234251 8.12857489589742
Sn 12.027721707949398 12.655844659807984 15.255832923249832
Sn 12.391300653784594 11.007351414584617 11.805692086377253
Sn 11.601351741960297 13.648543047818034 10.655974541935779
Sn 9.629464136163826 11.979499541586483 13.120603463258085
Sn 9.750008344598495 9.36752058635017 11.445245622147015
Sn 10.4551657764416 14.560290365499261 17.156028334042574
Sn 8.836546829794996 14.492728561567487 11.40771907320951
Sn 9.247489353607303 13.32923214878677 8.486439746589697
Sn 9.248645340195925 11.982051398839797 16.14517678968822
Sn 7.730534201455529 11.657886271089334 10.693897518855692
Sn 9.187078297865277 10.295659452838628 8.466297923677205
Sn 9.004583117442452 14.80961235211142 14.60108168145819
