20
Energy = -70.21958549 eV
Sn 12.714688054369944 11.709232785098274 6.622519109841574
Sn 10.769809845153747 9.554338457674922 7.718920375383365
Sn 13.850159051079924 9.371033026238964 8.335831955596657
Sn 11.751697166586405 9.787856871814295 10.623057272900587
Sn 12.776730377515607 14.341759854340967 8.209056623035732
Sn 10.522883889978477 12.39550158017471 8.742119850795397
Sn 8.508168699473064 13.864505356245038 10.434510319884117
Sn 7.123122860272472 11.079762428981946 11.217344470657803
Sn 14.649471904958174 10.512382134579136 11.172882826594147
Sn 15.014989297796804 12.259591934763344 8.61626100915693
Sn 8.852086251199802 8.618708402910967 10.224788833356243
Sn 12.879558105158258 12.906240068356745 10.853674733830237
Sn 10.902776404984053 14.480784426135576 12.512153558680053
Sn 9.865015889368669 11.6706683611935 11.902600019854464
Sn 8.004296994542422 11.347221448889892 14.352473376841905
Sn 10.566033194717582 7.439201689096712 12.564586357120197
Sn 7.7547133325734485 8.506896168359921 13.128944095518612
Sn 12.75229444478109 9.4497939865122 13.652443900454033
Sn 9.9942931881148 9.089691396825689 15.066939489429224
Sn 11.152091896703084 12.019710471135218 14.453772670396706
