24
Energy = -83.73188665 eV
Sn 18.53632324625246 13.921305587093244 10.878382051688595
Sn 17.865749513035958 11.652727719174301 12.907865853004022
Sn 17.74676636677103 11.205771739685769 9.866543725831582
Sn 16.732996153127097 14.608273485408839 13.167795874600774
Sn 15.443179496216953 10.15373228515034 11.480120282147997
Sn 16.40970669444018 13.978923433062121 16.325793145211016
Sn 15.07133954368845 13.722373582833148 19.20913552870603
Sn 15.444532908912132 16.420952142455114 18.027687691536673
Sn 15.570883610538157 13.150355580027398 10.706869188040692
Sn 14.859798270215903 12.214277615647228 13.581577028861725
Sn 14.30205607792423 11.832777150202364 16.68003145833408
Sn 13.527761332350398 14.922959562994395 16.191475316965235
Sn 11.292046681127387 12.474017051812021 10.210795669105154
Sn 11.619051398831926 12.990417823813504 17.651027369124193
Sn 10.290740259614783 15.447910736810174 9.681754984331183
Sn 10.250637278802657 16.79432481137345 12.499785451360417
Sn 12.687053030979614 12.64329659187901 20.345804357452977
Sn 13.254478287312098 14.612286242155564 9.132175360233001
Sn 12.75010881164795 17.189774445305385 10.702767633414572
Sn 12.567423683725291 14.645846824838031 12.151058877928055
Sn 12.64160572190174 15.645752596579065 19.083429817393885
Sn 11.731150618849393 12.033994695019906 13.29446290724314
Sn 9.343566296882871 13.897613156582448 12.16404028331457
Sn 10.828461735823659 14.494157544013925 14.931991453080204
