20
Energy = -69.01165152 eV
Sn 8.963559299301581 9.077199921797146 5.994638101659903
Sn 12.700932426989878 11.763862147157118 7.923423416615678
Sn 10.141907006476947 11.743213048639623 6.472443821213331
Sn 9.463788249868562 7.543399300157392 8.56839611367224
Sn 11.768389408530133 8.98911779562763 6.799285939780992
Sn 11.897023771901129 11.194323579458732 10.874617670605296
Sn 11.982427069358263 8.085421963427395 9.797911767645207
Sn 9.546979884864413 12.307449113080708 9.280339165703571
Sn 11.596512647632995 14.26979944219227 10.96524752480029
Sn 8.569292349103298 14.412967246180347 11.110792400001504
Sn 9.13765195337126 9.714974902356605 10.578137944723611
Sn 14.445319056725735 9.852116242777193 10.121833657386103
Sn 7.57247732494767 12.643138869606103 13.518954143159625
Sn 10.10182170247993 14.376982111859567 13.81607837473471
Sn 8.010133767606872 9.662003293114717 13.345074293568123
Sn 12.353467338449068 12.39085874047351 13.580575185264149
Sn 14.568502070161253 10.213695453374275 13.074631214562535
Sn 13.19620025423984 7.616522630019935 12.489774002836535
Sn 10.986318265075031 9.40844113743656 13.289010122103104
Sn 9.82229822256547 11.559515130912336 15.223837209612997
