28
Energy = -97.39775068 eV
Sn 12.824667561030157 11.814813409639557 13.820948799730836
Sn 12.643208209835542 7.0893449333925735 7.856336550007574
Sn 13.711326249629748 9.71768641809253 7.129422421310759
Sn 6.510846822507996 11.067515333766297 8.631435293453968
Sn 11.235939025695957 14.59597777813209 13.829278843043964
Sn 10.87020342969632 9.873710662416322 8.29233270261608
Sn 12.657181634953417 7.1126131078037425 11.795549533051966
Sn 14.373974919012626 5.769913813268441 9.852785915224244
Sn 7.775561872108755 14.518184234781767 9.508233284126103
Sn 11.792763455834791 7.578014679912807 14.635069246589255
Sn 10.203558627757111 9.74156704917053 13.451523214801734
Sn 13.667452223934706 14.107621004734682 12.157522200486364
Sn 9.768113057555558 12.142155659635398 15.091616935481651
Sn 8.460034079397124 14.201291520079485 12.669233335623451
Sn 7.166646485112701 8.10065703806726 9.07160477643084
Sn 10.125214236760712 8.030370963160225 10.476659684625007
Sn 12.428503212239082 10.278423653797017 11.265167921827933
Sn 14.66611504201076 8.751075476480791 9.819673566095208
Sn 9.476851885518014 12.097277828518934 10.643081577450353
Sn 9.14453559688357 12.451339256505339 7.603013984615267
Sn 8.248866671514644 9.635725937672317 6.557377330715514
Sn 7.664401033355338 9.802354176861382 11.568009784954658
Sn 9.581433414462898 7.0139875034288774 7.543285160852631
Sn 10.740479298093764 15.152021371481066 10.704131161472057
Sn 6.241150526957016 12.61197086011145 11.282102307722772
Sn 12.220637491944679 12.389755334234561 6.844775249017942
Sn 12.40047449478606 12.811774696639036 9.745264920010825
Sn 12.042643267544506 10.186526441771427 16.06886284200667
