29
Energy = -99.80353468 eV
Sn 17.66238564574979 17.161976665456038 11.75661321029828
Sn 13.078436369161057 19.137879890965714 11.9454274253821
Sn 12.963060226808444 16.77205329313506 10.109680637969046
Sn 19.420921520346926 15.79099802541729 13.650868883952729
Sn 10.428050736547805 17.637746225994995 11.805771175849006
Sn 18.024365631625074 18.177461524105393 14.749105455330838
Sn 15.411564147193001 18.07829042027926 13.57103386107438
Sn 16.59998513219668 15.358771243401774 14.336128521863074
Sn 11.032571433126442 14.591594795301887 10.81685017254098
Sn 15.205403877359679 15.358393052403438 11.632915207977693
Sn 12.655341078245268 16.198359656686538 13.275162800789014
Sn 9.524858446249738 15.088319931169682 13.382536052705301
Sn 13.262852025177875 13.013452059402619 12.237580592884939
Sn 14.2463201541601 12.920613273014743 15.154573772076297
Sn 16.152642141082456 10.653561505976587 10.566856680730286
Sn 11.826855324760432 14.563163579088803 15.947893136442422
Sn 13.136677831870559 10.031468086284425 11.119641093477874
Sn 18.023290382455738 9.195731538428712 12.899262765529379
Sn 17.70581639858874 8.079526045550534 10.237940521189664
Sn 9.347965543439605 16.087012642012848 16.42648556881676
Sn 15.470124263566456 10.395600268780742 13.514518417779001
Sn 11.76605441650713 10.942452088105435 13.882337575562998
Sn 7.426258371935166 14.0980376215066 17.671649115714285
Sn 9.091531918614178 12.952586692179175 15.552762406833116
Sn 12.88491951205607 8.118526624397948 13.640360899862715
Sn 15.311420645215717 7.752102515303353 11.843463712386495
Sn 10.254003377508829 13.781023497607514 18.48024104761408
Sn 11.405518484376096 11.416853045545736 16.898524092808447
Sn 13.902267179778839 9.916765219985933 16.076270099399196
