28
Energy = -96.84712837 eV
Sn 11.210042383956203 15.371351764543913 8.718359919388694
Sn 7.312118520916681 11.702870443756614 9.835544374631548
Sn 12.428440523397489 13.139203111211454 7.118731728657733
Sn 11.41225684119943 7.267310431005161 10.805445760682302
Sn 14.344018899816072 7.446935711425698 6.664590588512368
Sn 8.61638110699941 12.371736936550114 15.240731252976918
Sn 6.711458231956576 9.088925024916216 8.36361640124887
Sn 13.567652387379809 11.22556663541779 14.00191279699873
Sn 11.205258751404768 15.972108104364573 14.054563221818087
Sn 6.918631916590667 8.001666009853038 11.041872667792418
Sn 9.56351636190702 13.815950457410937 12.687494243244585
Sn 8.461628266400846 10.478589927514896 12.261900716054067
Sn 12.372226775432779 15.026036139664939 11.460634126841299
Sn 14.54223952975433 12.931713085862068 11.683097940649093
Sn 11.417976046176499 13.028922171493877 15.125682831076206
Sn 14.262265593655584 9.047558276709456 11.229476451487981
Sn 10.281695135456081 12.131604945412537 8.784949890350529
Sn 14.039743419773195 11.478436581760162 9.028128737722442
Sn 15.915263296927883 9.071184613560499 8.608150376857335
Sn 12.54840317486191 8.98214428530507 8.363591138806822
Sn 9.446790440245683 9.223364521451126 9.493948073151753
Sn 8.587179200946668 14.430537025397975 9.887725165058537
Sn 9.254878737939626 9.40680912112357 15.050692052626072
Sn 11.647245312366561 11.988814699395311 11.469322578350944
Sn 14.227924189009798 6.5938463189324334 9.546961440720755
Sn 13.87274117435456 14.562170925988362 14.307641364073737
Sn 11.33170374849708 9.42262599933482 12.894578062620342
Sn 6.616808433357183 8.659950610447734 13.791742136975715
