20
Energy = -69.76539391 eV
Sn 13.719120392840082 10.77584385166769 8.13380963040661
Sn 12.537474566729307 13.376562838751175 6.769892168709622
Sn 10.647282861725987 11.273645309685596 7.6502567277454085
Sn 14.530193943701475 12.03839538892911 10.946577154122952
Sn 15.16827647615814 13.512645733352597 8.429577052120992
Sn 13.010071882049905 15.76745552955962 8.553132303110344
Sn 10.424399369820895 14.180594920830893 8.949437103279513
Sn 12.811715312809968 14.431348516213854 11.190561416656204
Sn 11.515168455399914 11.703617816250985 10.426884766076453
Sn 10.490271471120215 10.154109973323003 12.954922640210732
Sn 10.92336102572406 13.248037610838116 13.258732041667608
Sn 8.381951690256136 11.428656906927198 14.740493207891639
Sn 12.76944890482523 8.766344075648336 14.491302979280796
Sn 8.723795978052813 14.415868806079557 14.744956766576484
Sn 15.17911726630523 10.367484741133996 13.263478508227909
Sn 13.114885173999026 9.222518012840684 11.156312734449525
Sn 13.110249798976712 11.89641913131292 14.803303183922988
Sn 10.57198019047853 13.056684032734756 16.54250229979318
Sn 10.566102642645884 9.896698837569756 16.276296618646462
Sn 12.736291319354862 11.418226689324463 17.648729420079835
