21
Energy = -72.72005406 eV
Sn 11.78755958407952 15.711814366037279 15.488817504982027
Sn 9.306641328756347 16.252714327468723 13.771319950848472
Sn 13.505312954961616 13.213339757686256 14.900306508764215
Sn 9.147651577916193 14.449680834283294 16.275794096587163
Sn 12.059034340921663 15.356319049527407 12.46832679181185
Sn 10.582731132110577 12.99868675905508 13.97862878695215
Sn 9.355168654868566 14.23053766748341 11.331578467831346
Sn 14.684626760294696 13.217715083744944 12.120876096413285
Sn 7.534881111308001 13.647125834227884 13.780186978662002
Sn 13.578138770344149 10.47916401851808 13.486041124762446
Sn 7.902379110413961 11.228608382613093 11.834772662537242
Sn 10.803195581515574 10.481596709980685 12.086711374477051
Sn 12.773567843407335 12.007725139425261 10.184291886774322
Sn 16.713292954671477 11.05498382071186 12.917028352251599
Sn 16.0030441032908 11.75449350905662 9.732470951779083
Sn 9.484151987714172 11.649083306737438 9.435348777440865
Sn 11.689414884550748 11.264000936478364 7.54406391525842
Sn 15.492799440157306 8.215186504179849 13.101655961220585
Sn 17.304251138555905 9.162025122727277 10.683952594340312
Sn 11.54613964306739 9.015696485975713 9.574268237017709
Sn 14.335187399670078 9.209744612442822 10.538109589763495
