21
Energy = -72.50500629 eV
Sn 10.682969477965592 11.607456324423092 8.62927649789154
Sn 11.147304541521748 12.526802515177947 11.495075199064683
Sn 12.699210347047403 9.627513152094446 9.555876078257572
Sn 12.120540881828717 6.599495004352745 8.896588948130397
Sn 10.962030454651696 11.218976089677083 5.734123410453011
Sn 12.164470957177015 8.612047245812416 6.4485911390968385
Sn 12.303588038395311 9.930204884666187 12.579106095923416
Sn 8.391311623396522 13.20680018764073 9.778879659259335
Sn 9.398441028598208 10.797126474721463 13.429600298151426
Sn 8.671406635711179 13.851810732430609 12.668072856019291
Sn 8.680628611326851 9.499325196730162 6.493349867713624
Sn 9.574813439347404 8.892544403767998 9.345889258313793
Sn 10.537012022567666 7.669725961036291 11.894006717301627
Sn 12.096550644679674 5.8482843098583475 5.943481210303062
Sn 6.549655746966905 9.478373357964433 8.586209914171448
Sn 7.718647796288632 8.814535037109838 11.845420474346923
Sn 9.435104735445979 6.649934109269479 7.025441229338705
Sn 5.677389066185236 12.182155898326064 9.276163451124601
Sn 6.627400330470465 11.670739577531656 11.995596619389987
Sn 9.339864155401264 5.561787426606965 9.90704758988605
Sn 6.502504331115871 6.892731431764204 9.956559013301435
