20
Energy = -69.33004001 eV
Sn 12.247673116104915 13.90043941663525 8.412472585402734
Sn 12.564785077925434 11.843272443259615 13.540996993338892
Sn 12.754306561275214 10.715937627221647 7.864496884670865
Sn 10.175205371746104 13.566883555633826 12.881701402925612
Sn 9.97491351237155 11.852508349488945 7.636998922707834
Sn 15.336429725791012 13.060164326731854 12.944169412078585
Sn 12.378629183023325 9.012703672446083 10.464614143967568
Sn 9.691675975285946 10.933638418908885 14.440297412608952
Sn 14.567687890725372 12.18997807908821 9.90359773735443
Sn 11.200637242300632 11.674143664344271 10.487971299452486
Sn 8.19813421605518 10.99190360134401 9.867592210904427
Sn 14.733573614691593 10.040595898669443 12.265912995046131
Sn 9.451821733202163 14.016212717375284 9.809859735630678
Sn 12.12992201376768 8.85679606795919 13.759646625723851
Sn 12.807572276299725 14.96306122266002 13.666229939415922
Sn 14.126617202100109 14.965151592193848 10.848441392816866
Sn 9.62969596956019 9.105976536544548 11.85572121682627
Sn 14.029763627196795 13.184246247797999 15.88958124081623
Sn 10.946558307415836 13.481070251407175 16.09777957722489
Sn 12.121980540273695 10.712899467402773 16.42950142819929
