28
Energy = -97.41180251 eV
Sn 14.106129396807924 14.005477289270939 9.42791880062156
Sn 16.961697073307434 14.98083570810158 9.857041003383392
Sn -0.3466839667945481 14.339135335744546 12.297661452166292
Sn 13.541580397578825 13.893635646060208 12.424130072885042
Sn 11.757670432653105 15.73474288934195 10.423205902059246
Sn 14.533279430504793 11.247796820159428 13.540426274148535
Sn 16.836537716193014 13.153544485842042 14.357334900363822
Sn 11.510220277355211 12.698026817984191 10.34120424496996
Sn 11.41722913715351 11.473223284445456 13.1746471685405
Sn 14.603638321832818 16.690834923635727 11.376725622990168
Sn 17.62396823309389 17.300835519586055 11.671886775387875
Sn 14.252696786142355 13.647071526083845 15.895686569139984
Sn 10.494004960072798 14.508664940217226 12.962332998976269
Sn 13.029566260755757 10.993721447974595 16.18878048260617
Sn 16.04162680899804 16.082555897367016 14.063190927328408
Sn 0.13539812686984568 16.68005279876634 14.22929847208072
Sn 10.843922812076974 12.951469303780108 15.834508116273263
Sn 12.324048562679488 15.838052705665799 15.171983262875168
Sn 14.585830395467816 12.441154957771124 18.680324281679443
Sn 17.18500694215177 12.657446665883386 17.220723302115417
Sn 14.335207243251359 18.203958851990954 15.490494439600786
Sn 12.158437115928956 17.963176389206367 17.722742044649852
Sn 10.32955980194973 15.367954112369457 17.52906525019696
Sn 17.13606007396576 17.495390179234768 16.693204936625015
Sn -0.043598742392833456 15.07703429909378 16.978852181337658
Sn 14.91790054105135 17.67544069623286 18.76917044201281
Sn 13.132140356098377 15.137302892809126 -0.4791527688003041
Sn 16.647995575447165 15.147702634803373 0.052580053841803816
