20
Energy = -69.49010519 eV
Sn 8.087461073171669 11.919370563254065 7.276275621043363
Sn 9.526729937729888 10.229997262042856 9.47424329972939
Sn 12.995722934162254 13.876894375658486 9.916181588905403
Sn 10.237599120350668 13.200019921392062 8.848178896657217
Sn 6.365355861526237 10.746793981399971 9.42817408855717
Sn 15.012026701805517 9.551936555848348 10.549592562543348
Sn 12.294497712569324 10.987380139154727 11.03257073569644
Sn 13.868217898897532 11.37286848436066 8.282141125968945
Sn 7.105169566933884 13.694843863450673 9.646450324701874
Sn 12.12036378480551 8.975548346900702 8.795013359765425
Sn 13.747064654888407 9.078311558627117 13.41857604336275
Sn 13.109137796159432 7.118703939707244 10.916240678456985
Sn 6.420257811936687 11.922432294434481 12.199684969454683
Sn 9.313917504459383 12.644715881089278 11.662970108934049
Sn 8.387175216277129 9.600300270242963 12.174928376048513
Sn 12.005874405505871 13.587868031387691 12.762171881026422
Sn 14.960873945420644 11.872274072283625 12.449366565483272
Sn 10.88911129457411 7.779570687768417 12.903162801176752
Sn 10.894279631717353 10.588846171509164 13.874824382005526
Sn 13.285542926979302 11.877703379358538 15.015632370353375
