24
Energy = -82.58475494 eV
Sn 16.322038398760384 16.493342666563557 13.508076736967473
Sn 18.5591174612326 14.665004294626119 14.409139528026685
Sn 15.337843161513314 15.49178410607882 16.33777690855647
Sn 17.706488782061243 13.938076437674379 11.783122255655261
Sn 15.173721036916978 15.690938345929878 10.817983563374307
Sn 12.389379698005396 15.948725157839581 16.402451562332683
Sn 16.045820815337983 13.019731683777184 14.49353124799562
Sn 13.655464463080278 13.401568435050944 17.705686054901427
Sn 15.46891331804811 11.015299184663773 16.657280904424585
Sn 11.719477173903567 15.477871176811414 19.26975797052325
Sn 13.527177210469729 15.097696828793188 13.480954833059316
Sn 16.023946569695944 13.110307038939705 9.528052506968178
Sn 14.648143762179739 12.261722897443782 11.952343091684416
Sn 11.50008296798388 12.610552479806923 19.519019943243304
Sn 15.912252792200956 9.947419494824665 13.650908191849965
Sn 10.557467127647149 13.534060725284624 16.763920342302534
Sn 11.936020374269164 17.864682967955822 14.053011184848113
Sn 14.90722631527163 18.62452371504224 10.239304416605592
Sn 11.79189124211258 12.808788818597023 12.808953236245749
Sn 13.62353183501465 8.877657492071219 15.495808939504263
Sn 14.514091196141491 18.88980407897699 13.137446992286877
Sn 12.472122928042511 17.268621943876656 11.209961986840659
Sn 12.601541165999532 11.627561356693871 15.380101093928408
Sn 13.032639464032423 9.80979669084916 12.623669437310008
