25
Energy = -86.7831304 eV
Sn 14.406936349965841 10.98519756287529 6.633632207550237
Sn 12.62082449452646 12.838040420990188 8.09994941762002
Sn 13.657414103923358 9.845666154823922 9.160978730650184
Sn 11.50869845745053 10.2268513632331 6.785053739342886
Sn 10.852988793086805 10.685503224863421 9.526080647928223
Sn 16.046816060845533 13.525046218761736 11.77245343594913
Sn 15.465048910461409 10.60957473887414 11.934945256223369
Sn 13.192994979931106 12.589565100743988 11.031525988546903
Sn 10.986626544472909 12.752541815389174 13.11427016196208
Sn 13.225252126221692 10.722205134830201 13.87064054185535
Sn 15.812284246177493 12.160288702671519 14.682608548476606
Sn 8.914001824646787 11.054509735689173 11.744888594436175
Sn 11.16085228023698 8.746586110801468 12.562651194706651
Sn 13.88959744211247 15.873774386838528 11.189301403590077
Sn 11.935757277131845 8.92323316260418 15.864273824640033
Sn 9.963028554796026 7.0786278789868815 14.763554658579427
Sn 10.814641106276076 15.1351419208035 11.197352219840612
Sn 9.43410084273848 10.255468637289228 14.950462005015249
Sn 7.971907840903379 8.492537070570938 13.048899659687924
Sn 14.751217855985015 14.871117801195947 14.198303539505162
Sn 9.982124950035537 15.351805579000427 14.235558734146855
Sn 12.644168462447395 13.22894141914106 15.675195856398902
Sn 14.61455762134552 17.698252906937334 13.76802474615389
Sn 11.722952574621745 17.424452185362984 12.881578884844357
Sn 12.477363556063493 16.390919616901243 15.711524010774065
