22
Energy = -76.91706076 eV
Sn 12.075495990913627 9.923456209170048 13.282708867674815
Sn 9.51642543098179 11.52071408220257 14.021633538094619
Sn 11.324468330065757 6.5577053207557965 11.99628188978355
Sn 9.243555831757 8.428995427095007 13.407364360089556
Sn 11.72074214305526 13.00659687202648 12.694945683563704
Sn 7.070171730034924 10.829542680429284 12.483095782781255
Sn 10.160517231534744 4.8940026598186765 9.611375535185585
Sn 8.258586539261547 6.656307903180053 11.18686826260119
Sn 13.475449361781601 8.492762123700999 10.941478492154717
Sn 11.456334551169652 10.64172040480862 10.299004370255446
Sn 8.598282172105835 13.490167126090887 11.648811040908079
Sn 11.705655846978843 7.16861269990107 8.747491828533951
Sn 8.774676467288131 9.51684240265641 10.265168732955217
Sn 6.619319301411109 11.588712950539707 9.584720846625364
Sn 8.522219794253465 7.299783969720641 8.095117321710227
Sn 11.261863379558505 13.658439333506925 9.88640674168763
Sn 8.081708589773651 10.50864197665873 7.121424119909497
Sn 13.312795274353203 9.438423043494149 7.908389286580042
Sn 10.953301313397343 11.620210996593316 7.360952613300387
Sn 10.591144136759606 8.860495326150973 6.31516798447534
Sn 8.468544666235978 13.561009417420733 8.361980749914943
Sn 11.041931564234098 14.514846881231447 7.1007101087439795
