27
Energy = -93.81995528 eV
Sn 12.117056448122998 8.397450028896241 11.317098563345324
Sn 9.270869799658472 7.134903406488107 12.102789872944317
Sn 15.384471192419957 14.899264992281617 9.04328025040148
Sn 11.526779477327414 7.132506808976626 14.018077574119184
Sn 15.37317315053107 11.273272555931182 10.701133434077224
Sn 17.120345140921277 13.81099197258389 11.033172939739906
Sn 9.575967878843478 9.561932451274584 10.20972899511166
Sn 14.21997233836935 16.3750917490239 6.978308178126039
Sn 12.920084981043123 10.37433582875505 13.387860519758993
Sn 12.800201895686826 12.712382493020229 10.39545909989405
Sn 12.102996629398742 15.032170089815128 8.631517593543826
Sn 13.86113577888547 17.60074420438881 9.708209119333072
Sn 15.523406893061402 16.318010561784252 12.065899453991095
Sn 10.07754060193845 12.289328567934113 11.410577148931074
Sn 12.540887869396833 15.584315794427289 11.613733574560882
Sn 9.414104785410217 15.197379083538285 11.58370835576118
Sn 9.720785463570104 9.733757992059088 13.373257149451089
Sn 8.2537725850783 16.06954392699506 14.109367476763815
Sn 11.996165249109223 12.839019049771878 14.768376092366921
Sn 14.593053732069743 13.481172612722874 12.810859815086136
Sn 9.049776954675744 13.26782048731825 14.164097325838894
Sn 15.952261244478805 10.598137420052762 13.652401295733762
Sn 12.745868505175315 11.79959372975542 17.45714128494414
Sn 15.108640247515252 12.784245471870955 15.775303710493075
Sn 11.198328387204194 15.740274641442863 14.311701777079088
Sn 14.510925597678519 9.649969852839448 16.079607976349664
Sn 11.329471617949151 9.530989360605615 15.986218895675902
