29
Energy = -101.00077795 eV
Sn 16.903976660387098 11.471116160138466 10.384985689108722
Sn 13.135399458101263 8.28036087915487 14.185137997646287
Sn 14.517120228828876 11.600821397432506 8.722230690907558
Sn 9.896101758438478 10.14197085080149 12.681194929894659
Sn 10.771344723128482 16.1321867246095 13.126255246639428
Sn 10.607806475918764 7.023131385666267 12.766392562276149
Sn 12.893329325543228 11.878115210234908 12.839159659071171
Sn 10.96072645838046 13.575522574549906 11.365973608344412
Sn 13.397089062671524 14.389665192807271 7.779483893529251
Sn 7.300408228927298 9.368558517205102 14.68620573347977
Sn 13.079489050301024 7.512156504451988 11.133409811928155
Sn 12.286322552971189 10.952231968836436 15.644339515968056
Sn 11.475014116131838 11.810357130577751 7.730916624199858
Sn 15.009112042921055 9.820599222269296 12.183719616326481
Sn 10.337617563632875 14.457324252130462 8.550652138778927
Sn 9.179481382248893 11.72673386058561 15.130211532919716
Sn 13.85243636669155 12.07407125701093 5.933831512484589
Sn 15.470816040184364 14.220630413880842 10.15228396830159
Sn 8.644242283389273 14.121367309335321 13.296205440005835
Sn 6.682336477849146 10.625618843508171 12.082480212805356
Sn 8.941042588858942 10.153086135648605 9.811886017540019
Sn 12.211389360463174 10.174203536107541 10.204299354241504
Sn 13.975837085881842 15.104813317697399 12.882135915129307
Sn 15.795052473912579 12.725500576563343 12.976522810375037
Sn 12.392041113895532 16.032126931243045 10.353648582876746
Sn 8.057574293087402 12.948646229243069 10.494597890075424
Sn 10.225955078392337 8.474976536733374 15.393315058650037
Sn 11.706017184707042 13.93462395538572 15.00928230792027
Sn 7.880401443639463 7.927102089045475 11.604665010383851
