21
Energy = -73.11534787 eV
Sn 15.202454986042031 7.994170868089565 10.823349400660497
Sn 12.365136191734717 8.788362327213843 11.843681715094062
Sn 15.770252995869619 9.696624787952622 8.450033967377923
Sn 9.566206397604535 9.996165877159504 12.166515435249979
Sn 11.75650974558023 10.856595171723967 14.38829317195675
Sn 11.162313149776153 10.693939223874725 9.627101368409786
Sn 13.037340041126718 8.224911913709551 8.691110040016564
Sn 8.960799182845916 12.15579756115676 14.352004661655313
Sn 10.266402309445006 13.02642899662692 11.808277882988689
Sn 14.112841672457156 10.986639560664992 10.589118411308482
Sn 10.964057196932302 14.263028207418165 14.750895537171887
Sn 12.520268833958417 13.856533401015744 10.177595915340543
Sn 13.31839478903021 11.014974646584184 7.456284045081079
Sn 11.389394909542856 15.011068395166141 17.53031700700279
Sn 13.554487256121186 12.886427051384011 12.955806906861639
Sn 12.546229014261224 15.781142246707253 12.612374847403384
Sn 13.53911673372047 13.171743183493007 16.246144564326208
Sn 11.290747270019216 17.306383011666014 15.27811278290414
Sn 14.087581194514408 17.817860225343395 14.061992400784908
Sn 15.359384034160804 14.936403710990215 14.259819125726198
Sn 13.923770524413463 16.275406078657948 16.605586702356238
