23
Energy = -79.2835057 eV
Sn 17.38962520555151 12.040818859515086 11.714760112875046
Sn 14.563993312727629 15.649711081614784 10.908137041629114
Sn 17.895826498016085 9.29056936430372 12.89674361797253
Sn 15.988654860809449 10.988412554294305 14.384960056969133
Sn 11.87182715750261 15.386997958669967 9.784253878494575
Sn 15.629698699610378 13.930195207606355 13.461081415398185
Sn 14.660820532730098 12.740200261029521 10.669409235794536
Sn 15.437143353893878 9.672931613915912 11.42675835213637
Sn 13.36070967959794 13.786520180437766 15.567684330834783
Sn 11.617423070602847 16.307122188540692 15.662590776410925
Sn 11.980846010701956 11.651907879246613 10.471139845588688
Sn 10.354665772118661 13.62161832135093 16.33444775097698
Sn 12.224529782938774 15.303236566096333 12.946589508171304
Sn 9.164446422765257 16.16049985435668 10.005496150597907
Sn 11.865887295429458 12.27026232041839 13.54330377759018
Sn 9.568487732019703 13.931420923845558 11.949626729804352
Sn 9.823186849548938 13.126415027271388 9.110464455523783
Sn 12.788441870629345 8.677376897672545 10.653718565971868
Sn 8.969808415898624 15.657907565253952 14.369795597267272
Sn 13.377058813144147 9.615645321385184 13.73720300130634
Sn 8.809969718376122 12.201402566893524 14.207122012440855
Sn 11.64085867407564 7.420917279317151 13.188712546989311
Sn 10.213604322669477 9.925299252560029 12.336637444781395
