22
Energy = -76.80437966 eV
Sn 11.702341838140462 9.064311509442586 6.68227868218923
Sn 8.873174680768342 10.519197007869469 6.245133643136902
Sn 11.712134416692143 12.003850147924775 7.273523694139995
Sn 11.169677541251193 6.030573542422856 7.0016976795782355
Sn 6.52662394391418 8.508781797619863 7.585978759262463
Sn 13.479822437423469 10.284482056573353 9.119439755712468
Sn 6.421417700531967 11.531054069018856 7.775440671525118
Sn 8.996652618444926 13.140388493657476 7.951079698594313
Sn 12.502898881202668 7.196383981870867 9.619342295740962
Sn 9.602979198809512 8.311612727640654 8.806721890161281
Sn 8.178590442074064 5.836127372106951 7.450888827153662
Sn 6.918104121777432 13.136725061302052 10.365597096543972
Sn 5.707796030682329 9.917685182574793 10.374376668807065
Sn 7.4277269022733625 6.524464649088065 10.374823559653981
Sn 11.336599772794607 11.98099156208875 10.336070829403983
Sn 10.108928650566906 4.987830753200401 9.686684989999874
Sn 10.208858577738233 7.199942031750091 11.914342484032298
Sn 8.64333635074738 10.643873809316549 10.488888598025603
Sn 12.604867961015522 9.412962336156673 11.890963189731526
Sn 9.335327607008026 13.151417512004258 12.238250256657897
Sn 7.4467337212053435 8.711800466455754 12.615541891167306
Sn 9.970396755141438 10.260555038560497 13.265074675749132
