21
Energy = -72.34289704 eV
Sn 15.11145595091737 10.846772734515941 12.238451982892611
Sn 13.912035169506243 8.883798069537407 10.394989316830042
Sn 14.162131005448723 12.074763210220311 9.770854083217092
Sn 11.045713055866928 8.23984485324066 11.138538656593973
Sn 12.21674227876362 11.06448305761113 12.286870289019172
Sn 8.19228000072926 6.630411750287995 10.845835739988635
Sn 8.685650569134822 9.341256591133257 12.948488680520038
Sn 11.921952116703178 8.697477172313405 7.973244255137547
Sn 12.330938446901067 11.682749002955623 7.429996213335436
Sn 10.406739613533384 6.266568246819125 8.846643549719472
Sn 11.382309958657535 13.212973919466561 10.188774105894975
Sn 6.7114977957813196 7.141387371093044 13.269671365502042
Sn 9.553026024829906 10.709226025714583 10.154542980113044
Sn 6.950031828595831 11.60591823636922 11.807963320986039
Sn 5.88653761460949 8.850480179065695 10.988736016082251
Sn 8.414369318081636 13.697923092359682 10.170681324025887
Sn 9.33419562630855 7.554852604037562 6.296674741063589
Sn 9.274979103010415 10.324632587415255 7.190749201810316
Sn 9.719448524100207 13.293904567602166 7.4153209343909925
Sn 7.014582715935662 7.698236817413742 8.307056515573255
Sn 6.648482467512839 10.847428438416573 8.80304730734777
