28
Energy = -97.26924418 eV
Sn 12.043829767306642 9.308284475092501 11.121779869355583
Sn 5.940500876922205 11.180928106469947 6.834039500776917
Sn 6.742029455265314 12.046195629385386 9.582253305951717
Sn 9.254398051247748 8.105516328808632 7.690181657950184
Sn 4.973434941080534 9.640088066443662 9.301174403279134
Sn 14.386293552372674 11.293487270951044 10.555950720863205
Sn 9.61338634455495 10.704736415701866 10.454882451250674
Sn 12.896784407126502 13.683417257904791 11.66004778563597
Sn 13.765315904882911 8.638125498829844 8.702252314661528
Sn 13.176765413743071 11.568452745315067 7.6427145660191105
Sn 9.84689540060267 5.953052576044206 10.131769652158404
Sn 10.284757865551837 11.071959718036803 13.643004359533341
Sn 11.998317075185623 9.142611909658896 6.17169428231659
Sn 13.215665365724385 10.961110041512425 13.432672169777883
Sn 7.203273616516636 9.38968500594573 11.531946894235299
Sn 6.4266776220153465 8.148663932415024 6.867804314782535
Sn 7.079298576278727 7.104502792352601 9.71197518126169
Sn 11.53151844854509 13.900808551019843 14.226646377694541
Sn 10.194487652792144 7.429469051918745 12.699437940841156
Sn 8.082290740708597 14.65757737925925 9.704632164824575
Sn 11.136179461996429 13.413961001598349 9.201272940477523
Sn 8.259264048940535 9.00817025646552 14.290274383420897
Sn 13.088471528806972 7.449382794522723 13.167107983513164
Sn 11.732614141165842 6.3930231691313955 7.724186286816256
Sn 8.205851964059665 13.230834689025034 6.9559922693539225
Sn 9.998991872161872 10.985706759234567 7.509234110467574
Sn 13.110538650558897 6.100997406459647 10.417800035540054
Sn 9.705714463927475 13.467058223636714 11.957878691840754
