27
Energy = -93.97680241 eV
Sn 16.470933126353614 8.4909320433517 13.853756714643565
Sn 14.819915530514667 10.260549805309244 11.920611274029136
Sn 13.742018340671493 7.527874908440517 15.166940966876613
Sn 16.569204796898184 11.569484630150024 14.378306852519337
Sn 15.2471087024445 13.614451108600486 12.473780679652146
Sn 15.234694418964038 16.63185633951652 12.720123026308691
Sn 14.509548911843792 7.0122156667267825 12.176889302020832
Sn 13.911909834374955 10.593020337842855 14.965683536514101
Sn 12.44176651643405 12.924893897346317 13.124706118041082
Sn 13.937697178515405 14.883186673468137 15.101639000754338
Sn 14.315115612087698 15.406562322908089 9.952239521907762
Sn 13.003190554433758 17.807493549157453 14.388970091009714
Sn 12.100841911577456 13.639809730973482 8.163246051868676
Sn 12.279818193268008 17.66712689575626 11.439664549459705
Sn 12.26904486635106 8.872847715239125 12.710179809789578
Sn 14.908258291670899 12.111709210623879 9.5428214367927
Sn 12.414067231886623 10.787512115102334 8.772612565724472
Sn 11.86969809126704 12.427580681898865 16.25635037671549
Sn 11.637134184686316 14.78961593323243 11.011498735403315
Sn 9.251553071480183 13.918549447687923 9.569959759950828
Sn 11.150696856612337 9.268910040473308 15.558106651280111
Sn 9.415939345019762 9.526714065751278 12.953780013971329
Sn 9.692922242564785 12.237286016632451 14.21832835825199
Sn 10.620607005788482 11.602511594820925 10.956440758415495
Sn 11.041705382262553 15.693889877383079 13.97167357385354
Sn 9.079726341901253 16.348956568591483 11.348161385033954
Sn 8.258656320727258 14.821868706095355 13.870474907556972
