23
Energy = -80.38657756 eV
Sn 8.996886899550715 12.993989372578381 8.47744112988932
Sn 10.559426664147928 6.15438941376415 9.018541825156799
Sn 12.272570372350296 11.821476437541564 7.784994142489963
Sn 8.383351734132368 10.591914724915426 6.511868994184887
Sn 11.528337539465054 8.208819219527806 11.456259961627358
Sn 6.009074592003426 8.295600836745496 9.733998566188392
Sn 9.969788717736295 9.011310811914832 8.340557621172032
Sn 7.9155978730599195 6.713485344570533 7.426383885122561
Sn 8.263427165487808 12.426284250937366 11.710994274563589
Sn 10.657955765441457 12.261408407718784 13.666431451541353
Sn 7.873946778544391 6.079154041023795 10.478566298253863
Sn 5.972088056731677 8.95550348106509 6.768461499211367
Sn 11.229446940304921 6.917859061373565 6.13186927267027
Sn 13.042113826555676 10.647790596541626 12.395611352515608
Sn 11.139687899072348 9.423089292034451 14.473388729915408
Sn 10.303251472706657 12.776795801330973 5.759856056830135
Sn 11.31927472578565 9.818695693798364 5.496922943635706
Sn 8.196168107698707 10.306761754538513 14.098583214343343
Sn 10.905056621281245 11.322768938925705 10.529731501122377
Sn 6.455578047265241 11.276836881743224 9.076423077831517
Sn 12.941981196239853 8.831898958738305 7.985060952721222
Sn 8.381009689179786 9.467561567592028 11.144869769885167
Sn 9.15773686207947 7.445954578960641 13.24958263574095
