31
Energy = -108.31364639 eV
Sn 18.707775417514284 15.331102807910028 14.225289400924423
Sn 16.92370364000435 14.665488987865482 11.621793526222156
Sn 18.533051563254475 11.92318161315401 10.754641174218648
Sn 16.332027524444843 16.969619829613475 13.507303298610342
Sn 17.121562767145253 12.696905273080189 13.976576351254302
Sn 18.420793585557206 14.267886636251626 9.11081875803705
Sn 16.330634622146373 14.94103933102401 15.994763861878996
Sn 14.503644835233384 12.833914041942071 12.223639027303062
Sn 16.070990238542496 10.117503272805742 10.683288232729035
Sn 18.26279073387131 10.144701076877238 13.050136754717512
Sn 12.716375567341633 11.107025996531837 15.853061942310028
Sn 15.793433590852406 12.707991339216425 9.225166635104268
Sn 10.138494602008358 11.059242087286025 17.644041555011476
Sn 13.933711528414692 14.96327229231427 14.281534427182383
Sn 15.150126859864963 10.189822685036805 13.517626411957428
Sn 8.10694542335551 13.376402514900798 16.746008704010137
Sn 10.870576669618808 13.433732887213337 15.686870477057349
Sn 12.202266485065818 11.318582251082969 10.552504006525915
Sn 13.154692432064264 14.418754297754097 9.966681841992928
Sn 13.579005099386421 18.038833817912522 13.806909732626323
Sn 8.270549860126243 12.672147172113329 13.859603336938566
Sn 7.648631517032957 10.403519787772048 16.053420933409914
Sn 11.08859771083376 11.37369571765508 13.320101670391042
Sn 10.66944835858446 14.343394768724322 12.125395508066497
Sn 9.101364203981127 10.879692250613774 10.262808300205808
Sn 11.188827835348755 16.265320803059844 14.538491260241354
Sn 12.179541348586735 16.86326619702391 11.472809344308244
Sn 8.477503156333352 9.782509845147466 13.176774615907927
Sn 7.836087893665663 13.6545353754823 11.038297944040051
Sn 10.475586892402491 9.020214086157383 15.356170686534025
Sn 10.296995902820708 13.468862987076083 9.221013158782702
