37
Energy = -130.01494267 eV
Sn 17.605334234204015 14.478500826179644 13.580560008051442
Sn 16.223957887788437 13.18700525555093 16.009781482900575
Sn 17.200887027437098 11.446760428675264 13.328371889767965
Sn 16.1889441151332 16.325175535434674 11.612162212546238
Sn 13.945311707668386 15.157311493096591 17.344641825860844
Sn 13.53386736290583 12.144559871006694 17.313544734761642
Sn 14.001623891101582 18.084401443201077 12.952357147848327
Sn 15.95991882582673 13.313953597265344 11.068538481053965
Sn 12.345165900799472 17.02411000579503 15.376681548916453
Sn 15.683710139387475 9.600918496920938 11.422399220020758
Sn 10.845652656222757 9.37318334827999 14.161701707493073
Sn 13.001400800844129 9.301094172014679 16.227713602264643
Sn 14.815314419763418 11.271797433201863 9.138198111724774
Sn 14.576552416910996 15.223487442040836 14.2461718613111
Sn 13.546198548535507 8.155818701190505 12.900050891746373
Sn 11.091807340436086 17.333089872484255 12.393948873485737
Sn 11.101728679617535 14.07146176032863 16.853703155325142
Sn 13.303714111483943 16.383968521277477 10.455283863916073
Sn 12.46424007890604 10.505006765492425 11.206405596009816
Sn 10.441188658983636 11.031972718191481 17.04669700132814
Sn 10.82462356351967 14.489001043971674 11.341791491107292
Sn 9.751152338726842 15.486131616534216 14.415927658846202
Sn 12.267283613697936 12.893016062688764 8.741242610786328
Sn 13.333944423805493 13.3987768641926 12.41899459380593
Sn 12.628378255087734 7.607985100117217 9.980128504968485
Sn 11.431527237454878 11.90098892866106 6.005174006103971
Sn 12.516913826019579 9.611661624442284 7.796304877269323
Sn 9.383920611322203 10.851496643412132 11.743639228495097
Sn 10.960994951792138 12.497126415753275 14.22537969941248
Sn 8.169117730347446 13.33093944834858 12.907718590005244
Sn 8.123274985897998 8.699012642412065 13.444590753154932
Sn 8.132981195230073 11.165417569024022 15.08471857804607
Sn 8.502703121383314 11.549687436184511 5.729944531218939
Sn 9.484474874008056 11.647881022312594 8.4964577133427
Sn 9.813290459670824 9.050426300451829 6.608507340295274
Sn 9.87559052704621 8.622945981327007 9.575388531767743
Sn 14.331299266380489 11.191917397885613 14.253167860387066
