37
Energy = -129.89939378 eV
Sn 9.176733994708247 13.407496874250459 16.773943960090286
Sn 11.645571277918478 12.038360475333219 15.3202496599514
Sn 7.579107317012437 11.969155479572645 14.337367991346534
Sn 9.359980681653772 10.203508051125665 16.0608469255213
Sn 9.334690009624943 7.6179697448758 14.316377865175228
Sn 7.916031682870839 14.917950015251604 14.376630735114215
Sn 12.733678803957115 9.175347806063273 13.46423531465199
Sn 7.938534696537725 8.776628040098782 11.99647180640441
Sn 11.668272214039366 6.53503675013554 12.754062896322136
Sn 11.040402697844106 15.013898414629175 14.942896320972629
Sn 14.490328059239726 10.889978919337127 15.239179252198882
Sn 10.129353540719618 10.561890327307013 13.011847035023344
Sn 15.040866395099739 8.303216145530719 11.495025821125001
Sn 16.083791238613397 13.48115087564216 10.6210327138581
Sn 14.001942713649566 13.683901612908176 13.965947170655557
Sn 7.480716133033009 15.247649916762915 11.18475632977678
Sn 15.590946955317433 11.214040180699369 12.39513882980453
Sn 11.305191970726524 7.947004233730253 10.12388343210516
Sn 10.263631004038373 15.00575296490492 9.880486619994107
Sn 9.917216979586847 13.563669151530096 12.51886535556543
Sn 13.061720819340367 13.22260007723744 11.245982144720665
Sn 12.976330598167086 10.401841483015655 10.272524527956714
Sn 5.634026248268805 10.524059743046477 12.62380581842939
Sn 6.915402708073495 12.416751784874126 10.8171498423472
Sn 15.888192777157666 9.586962663180799 8.925213447894551
Sn 13.841769136783945 14.143804926189832 8.55599091229209
Sn 13.898865457326162 6.945240321510178 8.930129788491866
Sn 8.536607537273827 8.342265378168895 9.054543532721732
Sn 16.342134465951908 12.340598733963297 7.830402078964155
Sn 10.866536509136854 13.045190868769637 7.617540707047579
Sn 13.60600367433539 11.078272262117915 7.3676007694743175
Sn 9.6217453383439 11.280312949345861 9.839599610551373
Sn 14.875952310946948 8.258951811593283 6.429426316036131
Sn 11.933799606434047 8.594232924970182 7.044368293542275
Sn 9.345159321397388 10.585707655549031 6.776404677160019
Sn 7.839314770314352 13.513659807968281 8.044286789629217
Sn 6.629204698255969 10.675694972510806 8.35553905078535
