31
Energy = -107.57324192 eV
Sn 11.46743931231127 20.56019857214209 13.580994822034405
Sn 11.4016963381732 20.191156019681184 16.503647451780257
Sn 16.103361567495835 14.175264887023507 16.636926007901053
Sn 15.4112500040604 19.512908163549614 10.302476078364574
Sn 13.272474815359661 15.444314759127298 18.237759705751937
Sn 14.021976135210231 19.40460495013986 15.323192571744089
Sn 14.075947155219817 11.765265195593901 17.912081369238063
Sn 17.203315547968117 11.564064901330685 18.54265917601903
Sn 13.695955362491066 16.291244215983014 10.841612393516415
Sn 16.112798798076827 8.377642735158238 12.3925876899649
Sn 10.89386291875829 17.77230309032928 14.94157896958718
Sn 15.29998102989924 13.708375011144053 19.6419888477137
Sn 13.734616647397539 16.389081692110107 15.532609557508772
Sn 13.419734587606262 18.780674096330497 12.411115865936361
Sn 17.765170018461202 8.620656529379565 14.888308310583088
Sn 16.660025166961244 11.258478845473103 12.691246406779939
Sn 15.790232800903004 9.064472644598622 17.3051457860997
Sn 14.607733193940632 9.535625536680861 14.635921547294261
Sn 17.296110651090483 18.23610458350037 12.488928755531857
Sn 10.24685584618929 13.157516914596654 13.952962447744179
Sn 11.846289152723138 11.258120546690613 15.894614412677736
Sn 17.437379093499647 14.011016058324085 11.805432661890997
Sn 14.459675875015593 13.41591126409699 11.770801626568343
Sn 15.749282640916787 20.69388036092889 13.114735061554903
Sn 11.906630556227844 15.449600229819668 13.28848357681974
Sn 8.999948902091692 15.473777271121065 15.333689878077793
Sn 11.11032567939109 14.085627446468678 16.76759554435946
Sn 16.67424659210494 16.71492328338241 10.025293988041915
Sn 17.222184744374797 11.405435467925173 15.611856579083758
Sn 14.206054279716675 12.656284955592119 14.712582361585127
Sn 15.628243280610228 15.863989731497515 13.281290427913891
