31
Energy = -108.30946452 eV
Sn 18.079566222520413 11.14232146494266 9.881170324923072
Sn 13.521680309462617 13.983628878481476 13.405677189096735
Sn 11.563236621648162 14.809409039501286 19.290166407530595
Sn 18.33761950285148 16.104453976818338 15.302471192470204
Sn 18.572589318814522 18.223188841473313 13.049978476815632
Sn 16.634351148878466 14.528362989356458 20.092906953969862
Sn 13.599729041386773 10.917672559695818 13.763089061070389
Sn 15.381575232910619 13.045948516111242 15.52287411521706
Sn 13.298025535750515 17.31433556643103 14.854028287400569
Sn 14.140991413498915 17.572271045981466 10.763225536367585
Sn 13.520454314588354 16.46012926023983 17.656382412597907
Sn 12.47434168009071 17.67648658492058 20.127815143350666
Sn 15.575378918236906 17.450020990947866 19.83177785733351
Sn 16.128251142376715 19.470190618271165 11.799529015881365
Sn 15.216550685545771 14.807809291858256 11.121130071334726
Sn 13.373010511487411 19.717338758739192 13.115482186897374
Sn 13.997221424104497 10.931683423197248 17.026106920877403
Sn 15.831290683636011 16.781620022153003 13.477721144664342
Sn 11.94514309454478 13.27988454608736 16.436599099984498
Sn 13.897898591859128 15.39297834690966 21.442127397261682
Sn 11.53674088005792 17.57240329370078 12.212938794864497
Sn 14.15357492907485 13.300124777770476 19.013863102352055
Sn 19.71780515632621 12.787656141575916 11.753286200858637
Sn 10.941796651606765 12.372433694518014 13.347353123333745
Sn 17.676978244751048 14.00197569144994 9.431016309955739
Sn 11.02279193203794 15.349197134447046 14.40134449880438
Sn 18.28928629456966 13.149022975936683 14.480482288358155
Sn 18.248588194613426 15.372340396714941 12.082684755085308
Sn 16.217203446720237 15.340245739522668 17.27999585857784
Sn 16.548265306074356 12.134149135088535 12.102978650887888
Sn 11.19634969072005 10.507776423461582 15.742511137546407
