31
Energy = -108.16373332 eV
Sn 12.134163214124888 11.475850874634547 18.25785243922864
Sn 10.35990833563739 13.9361336881025 17.482271705536427
Sn 16.15064853292148 10.636746421345954 14.777461972654956
Sn 15.004187182600738 12.054940373515347 17.542685398828915
Sn 13.183600668150898 14.378805957327254 18.56445297035534
Sn 13.208259887204592 9.33894873067419 11.094916481778805
Sn 13.100166420040672 11.368881874015628 15.252999002149787
Sn 15.962105659231808 8.971684125371711 12.182024963615188
Sn 17.561360339694605 13.27271402612205 14.65124038584835
Sn 10.438050735873299 13.187747129343306 14.243966869888208
Sn 9.880282088205929 10.983566345362116 16.222939906304905
Sn 16.216735704366876 10.376907728751817 9.432913335300565
Sn 11.2751963896796 9.70231890503291 13.678670235438886
Sn 14.667951261487019 11.891642115399385 12.414854729952326
Sn 12.747711999372767 14.612018200817555 15.494760496589585
Sn 11.453586586616526 11.921618413784321 11.603817427607645
Sn 12.899970619798577 14.64896419949328 11.9437324537762
Sn 15.693204713031921 14.921824865335074 16.41623320272765
Sn 10.765673989116038 14.134609481309687 9.617647640630308
Sn 17.978017939048037 11.451719004017018 11.954654305183517
Sn 17.995174417890937 14.636625774073945 11.972939701027993
Sn 12.49468222461903 17.131496135218217 13.69410037547214
Sn 10.093927454420825 16.649917839602995 15.66141676637984
Sn 15.462158543002072 15.412640353414812 13.41037261820431
Sn 13.503130390139823 11.553377892087797 8.97773372116368
Sn 8.934318069431784 15.511418493713808 13.077804213731078
Sn 10.789684162174234 16.842608781000553 10.983676052180577
Sn 16.041161283673997 13.328073676554153 10.10473013822325
Sn 9.731444302530635 18.458756346059236 13.340550203930869
Sn 12.307533224153214 13.437735607426676 7.164262221981811
Sn 13.855979160558869 15.14256191215545 9.060131752953671
