37
Energy = -129.08575889 eV
Sn 11.610921748208954 17.589717409978903 19.726289335793112
Sn 1.6492781242176684 21.125810726932613 14.882335577909094
Sn 2.1146617001845427 17.456003348339234 19.347183456385693
Sn 15.832666722465582 14.993693029553391 0.8655228504805295
Sn 15.739124571889551 16.525797917018338 20.359592654937853
Sn 18.43197424345021 21.16359703752242 14.552208533570132
Sn -0.2389251140806268 17.98429423352838 17.342602447584003
Sn 13.814870697071996 13.941825473598787 20.673896054928846
Sn 0.848031107026652 16.11881112474227 21.6001630314523
Sn 18.212882548578357 16.602145370730945 0.027351725037161424
Sn 18.838135542409233 19.292483931514564 17.0445542934132
Sn 16.810614517525902 19.70809547346578 12.32271313423543
Sn 12.800896500353327 18.996933812799767 15.615779972891517
Sn 15.590404319796676 19.029913909093473 17.2525417609577
Sn 18.798472626249964 18.12769803497149 14.14415737118303
Sn 17.23657693035593 16.5366501655082 16.433348140489283
Sn 15.434069802616289 14.454440918451882 18.202832990316686
Sn 17.747682682271293 14.122885849364211 -1.760428416891345
Sn 11.258619603434227 15.162335857624685 -0.9576503045307622
Sn 15.140473016099111 21.063196683519188 14.712133511363668
Sn 13.508198073572292 16.789304399821905 17.596902195843786
Sn 0.5307360460756003 18.412899736663654 14.553071250177682
Sn 1.000599591912881 20.164034274414053 19.156532430910566
Sn 21.07230731998335 18.326058495326937 12.212397596704902
Sn 16.829254452786003 -0.5200519862947682 17.082552244858984
Sn 17.491461280991413 18.968117819324622 20.581275729958897
Sn 15.918391387111816 12.281541063358155 -0.3140298388319154
Sn 14.142299519533875 19.09397647615061 20.25496540080981
Sn 19.02152464652658 16.721571538135038 19.0654850389885
Sn -0.8635133724178059 18.25809903457789 -1.6340272663430229
Sn -0.41942134436349604 15.468329273253124 18.925803860455268
Sn 1.3721848205080882 0.2762976772172477 17.505726881292954
Sn -0.9550096404980855 21.033291893237557 16.607101134679624
Sn 21.356379715873043 21.013306557885077 13.36065754619213
Sn 13.697507938266698 19.488105022471547 12.661167976588093
Sn 13.395205992324632 16.943067507594677 0.10884025757620483
Sn 15.456368698613286 17.71687619572724 14.300631104121884
