33
Energy = -115.44540498 eV
Sn 15.076372608279723 10.050344628760682 16.425336576801744
Sn 14.539739690808416 12.87591936778181 17.18746995778672
Sn 17.811014405670306 9.704461244055675 15.328995510922494
Sn 11.256449558123903 12.161632957305311 16.97285552175377
Sn 12.724303164665859 9.787082264571259 18.166172054773345
Sn 16.23796144579282 13.975497939127553 14.952669351850878
Sn 16.431261656547395 9.020982783045906 12.855093059074308
Sn 12.957120114245633 13.49846629299586 14.563666630305091
Sn 12.331112114407295 14.964139650870838 17.36511801482103
Sn 13.715841513578576 10.286720344570089 13.880153271844955
Sn 11.211350305587942 15.997323357323877 14.637647384990734
Sn 11.135305274946592 9.010778196471275 15.801016042131062
Sn 17.693158202597125 11.928690233868453 13.238404745713577
Sn 10.179722863703997 11.683066446777095 14.19283393253186
Sn 14.09162211342496 8.760015209467449 11.122179547269377
Sn 16.896740522860615 10.832282162604159 10.470409619067343
Sn 14.358378270275997 16.425224154710858 15.284655011472818
Sn 14.828554028429611 12.531749987692928 12.182953697476705
Sn 13.19771702794634 17.607608258209545 12.808381093645052
Sn 15.446347562704103 15.532745124102245 12.358492112598498
Sn 8.681220374316371 9.170776098304898 14.262140631228947
Sn 14.02684916992289 11.354835831891636 9.38205064719558
Sn 11.556181145313403 11.592964149456183 11.22873738539121
Sn 11.324133901698243 8.84407450677771 12.738764340708993
Sn 12.725346756115284 14.875536925389191 10.940036039668486
Sn 13.389608085338233 14.275762198211867 8.089643383740505
Sn 8.829594386470564 12.463369424727773 9.959461759652507
Sn 10.526995243127153 17.29486552875267 11.238943075109502
Sn 10.493277865270995 13.691321126944278 7.836563042541678
Sn 10.039721588761594 14.199918145401853 12.207412659528858
Sn 11.610571373034139 16.65716504774992 8.509749452303334
Sn 9.142412314947727 16.1769946324517 6.958086005336428
Sn 8.558094336535676 15.443481329668726 9.775055828331396
