33
Energy = -115.03584073 eV
Sn 8.884583986733924 14.62654858342448 13.947101209331885
Sn 7.246766404218768 13.345911027489112 11.74451195432039
Sn 15.051491712224946 9.362627946303565 9.38672913173097
Sn 7.862109523963809 11.26768032757534 13.830263834080165
Sn 8.486534084475712 8.357282521650776 12.62509575976049
Sn 11.119397893416796 10.669380930993498 13.131579414940143
Sn 7.697418449413032 9.760043461495451 7.20617524911782
Sn 14.195988689942519 11.964517556817508 12.656002240369713
Sn 14.246677912029742 7.958998562440904 6.737236351722129
Sn 8.58507981980034 10.213433790762554 10.305222229021005
Sn 10.379694370092688 12.413392375572261 15.599385990035861
Sn 13.942395882539465 6.449334797652995 9.31918310989155
Sn 12.204805542343237 8.718476799265279 10.490659822209615
Sn 10.315773767635685 12.96652889079656 11.39771708922797
Sn 11.487131044289839 14.59882912147755 9.110622608746494
Sn 12.074427661740314 14.149310214363611 13.624459070947772
Sn 8.421565307847812 14.276190742684433 9.025755757025639
Sn 10.19184818329002 12.736421372861159 6.877759308054834
Sn 11.289097395862793 7.104176611705789 7.744646469659914
Sn 5.998659823121725 8.444078593578842 9.198775166325055
Sn 13.31857321328242 10.871736431148783 7.1005015135260185
Sn 13.228535206327601 11.582124103996168 15.571093794943318
Sn 8.283567869732153 6.807413793526743 10.040602840197325
Sn 11.330005372373906 7.476137810227341 13.109015865064546
Sn 12.873688092725379 13.842418093165978 6.595882345789937
Sn 12.849192852167771 11.69626352428832 9.875592988663007
Sn 13.751899140735034 8.99990287311054 14.024705820935948
Sn 15.97109266606316 9.58978624929336 12.210254621278715
Sn 10.557457013610398 9.97490930375969 8.109169385015399
Sn 6.12626659654459 11.621168590970068 9.338619032670483
Sn 7.189699196504378 12.71822654312405 6.667114413905977
Sn 7.590380886800908 13.058284435384316 16.168318635723157
Sn 11.127213600377713 5.778830010820974 10.545025042655768
