30
Energy = -105.15193865 eV
Sn 11.833583069463641 11.709189694627394 6.95634183854456
Sn 11.832136323383997 13.730296797372837 9.593300799241382
Sn 9.397949826568196 12.521468293926564 8.542418582239085
Sn 13.935798727466606 13.694973472279635 7.442632775659025
Sn 16.59029360615149 13.481419312401062 10.429937267444958
Sn 14.33673430249479 15.738897676501404 10.016788412923185
Sn 16.460481905282936 15.014631576057898 7.938206779361437
Sn 13.744069824719 11.065938688785588 9.352930691804202
Sn 10.911528810776128 9.819160083136525 9.460554109263846
Sn 8.218890677889839 10.574765262815696 10.52698793301831
Sn 10.79079480785186 10.339702675926334 12.48318313327774
Sn 16.175762908751434 12.88322338897016 14.375421514858157
Sn 13.741016190555749 13.053815770942895 11.778992945468042
Sn 17.031868293429653 15.324084712640293 12.767052249586774
Sn 15.769275876656241 11.001009565194149 11.99708516475792
Sn 6.668941637685919 10.747190540450262 15.26982683057864
Sn 11.999167703553594 15.256557851375906 12.585706462872352
Sn 8.351947654685723 8.87197738542449 13.54377218897259
Sn 16.560647551552233 17.710348237118172 14.400462159008422
Sn 8.392202663879921 12.122681904350891 13.203214202400623
Sn 14.416963984804712 15.417922363262681 14.33509035329694
Sn 11.086982664151128 8.283788965271151 14.881570667194538
Sn 8.900096044738444 9.33383916289048 16.695809495068094
Sn 8.9333230854914 12.530789763836195 16.360372970007557
Sn 11.143978577020698 12.890144351150909 14.297206396175858
Sn 13.235021427373898 10.544166979882753 14.310905557973301
Sn 11.492210907692831 10.905996926270552 16.763503868261445
Sn 17.784056200777908 15.088912937814897 15.879635375333642
Sn 15.346698290205078 16.665240200421596 16.92178993534436
Sn 14.935658847930371 13.6959478518861 16.907381733047316
