35
Energy = -121.61265286 eV
Sn 8.912340700859142 14.640366493498288 14.304302577063416
Sn 19.576154454049313 16.75148458761039 12.706313838939812
Sn 19.34305237857717 11.58663104503691 15.877618221302102
Sn 17.387251482892566 12.925459618678738 17.662064223469415
Sn 11.844265722463934 14.90934002579748 13.454854511004704
Sn 16.97077001804234 9.855326552528036 17.55876480605841
Sn 17.276353586654302 18.316730956613572 14.174315373278677
Sn 13.54322995967816 12.297827254716488 13.48211452749324
Sn 17.649714858764842 16.02395122050821 18.25798864702875
Sn 11.17832151321924 15.614946587620558 16.38122927558181
Sn 15.23171979233974 17.855401151256956 18.267764701826867
Sn 14.74025609866193 11.795384333517978 16.353652350616095
Sn 9.395632706421441 14.710209596034128 11.337031411586358
Sn 20.224602466700876 14.138378037774366 14.181714492006002
Sn 12.286294431585956 16.592923314969727 11.101998297650104
Sn 15.231384081367121 14.795664238039048 13.880659738288381
Sn 17.819082243941853 15.570875739284784 15.21945538926127
Sn 15.1899636441398 19.860608109568567 15.662488833426456
Sn 17.99709859385704 16.39048997823162 10.013262236474919
Sn 11.597146492993998 12.721707736470703 15.936615327921048
Sn 14.058832759697777 18.095752604621772 13.076093174123143
Sn 18.64382276935037 13.965793013975997 11.611916970259724
Sn 16.489940649670245 18.770338195638498 11.42455551258482
Sn 10.202382471850173 16.47823718625373 9.234913008215308
Sn 16.035409047430967 20.72110523183336 18.30429206587317
Sn 15.320725718830056 15.806770095968531 11.14174212714466
Sn 17.350391053371663 12.559523323507507 13.936249581188704
Sn 15.723165590877434 11.540367654513414 19.864249568985898
Sn 13.890592994710232 16.688390739706715 15.78800479649595
Sn 14.10715589032922 9.411607940628308 18.15969476524563
Sn 8.915704706555493 11.774499973938008 15.109862191686496
Sn 12.830080390194917 12.044160850067698 18.82738239912274
Sn 17.998360259960243 18.94086218037524 17.030508105490547
Sn 14.73530200916676 14.33715848933847 18.108433072285756
Sn 10.404115256454896 12.249878628370118 12.579097371162565
