35
Energy = -123.55719225 eV
Sn 13.365448757006268 9.68975306310378 9.937249366834362
Sn 11.97795751430206 12.331248707609333 9.419616063200623
Sn 16.797937139745013 13.43294565939362 15.673886025300344
Sn 11.638944870208762 11.3579440785378 14.674304415052532
Sn 15.861785959045182 13.920235849935606 12.486684441933
Sn 16.886977703865185 15.260188703590963 7.886331199601103
Sn 11.050767671057313 9.75243262091392 12.193828264107028
Sn 14.642542130575439 15.444651110509223 16.825606771194828
Sn 14.12827420973912 16.49583931558161 8.450684367357715
Sn 7.508047907115194 15.5959069090757 12.043235507262601
Sn 11.436603969533305 15.77139218473132 16.87666511125048
Sn 15.368614834051268 12.023968370761722 10.170613834115835
Sn 13.380767282641951 7.878782120787829 12.307190090414911
Sn 9.32264023721534 15.898998319622116 14.562462811911608
Sn 15.497915639398876 8.789750933014156 14.291836229905991
Sn 15.990972912957579 13.299368267519542 18.74766755401154
Sn 6.996696947474885 12.648442357335512 11.39817560310153
Sn 16.33015282161588 16.355560598898172 10.657351824190766
Sn 14.00565296322526 10.882711953924652 18.994844961067148
Sn 16.338263854248567 10.606367626171258 16.903398301364458
Sn 12.411661616142277 14.468821947888241 14.17116545156275
Sn 12.950638572657674 13.788827018067925 18.917678558020302
Sn 16.90024800377063 12.231716182868881 7.670609137847958
Sn 18.016635544974523 13.675183352779458 10.252095230863707
Sn 9.894725881106268 13.259214969662176 16.247596700298434
Sn 13.347702439256773 9.385786659950258 16.30566492590366
Sn 14.139613110461339 13.60445043244505 7.682428647389263
Sn 13.98926406454015 12.511700261892198 16.30148643193029
Sn 7.329861291170423 13.508961990906737 14.393786645748197
Sn 9.835161942901884 13.12468852908231 12.595607756138492
Sn 13.53860350497789 14.691333119693855 10.740966610741209
Sn 9.18825619681173 14.236202069284412 9.708571590866368
Sn 14.069818667850129 10.956346509539385 12.830992620314024
Sn 9.33244527519043 11.031627366299166 10.070465671798246
Sn 10.692128580776167 16.012411337867913 11.744160070537518
