35
Energy = -122.3882007 eV
Sn 12.199951758533551 14.7412739479048 9.387300495715403
Sn 14.975040379913024 16.35534744567381 9.115497387642074
Sn 19.152257552506274 13.835264934781021 11.679366739096613
Sn 15.074466198830125 13.45273647561983 8.614749580971376
Sn 17.81383595230345 12.135690266886588 9.513337951581422
Sn 12.469581783424019 12.57058220580388 7.167965171138735
Sn 19.195346998150917 10.709301542751216 11.997976942937337
Sn 16.222497824855957 15.027461550869807 11.516290841402876
Sn 18.11928956546012 15.459129860679942 14.100181897300113
Sn 13.12091180660274 16.46569666363083 11.725409309490859
Sn 10.305741853548712 12.428216167956283 9.427328557423513
Sn 18.29569422869951 12.41342717659068 14.410996843590606
Sn 16.537140171716278 9.677571962419467 10.821168914659781
Sn 13.170108585796836 11.949793359204469 10.556502222811238
Sn 14.769435340539886 10.464976158014402 8.255252282058935
Sn 16.145647526517784 12.124672519644319 12.32469449143408
Sn 15.136615929189567 16.40943707739285 14.248719720310332
Sn 11.816749900334646 9.960893489008301 8.713418419789962
Sn 15.664283492448435 13.748353833846881 15.695880333025391
Sn 13.530201542923587 13.801135382985446 13.192374077849177
Sn 15.642947818346965 14.69864794737968 18.98845225150515
Sn 16.429759102399203 16.762789748224947 16.990713149688847
Sn 11.894602670825888 17.065681275274915 14.569664097949762
Sn 12.606823998189679 14.39290003095652 16.319345119146373
Sn 10.110950960903592 14.628727307066736 14.730791688563082
Sn 9.251466089136617 17.238036914321974 16.29603504538208
Sn 13.457446079091085 17.278509663642808 17.302330578892906
Sn 9.702522193280904 14.620752171539877 17.817724198721965
Sn 11.453757387924457 19.361033925125643 16.47873872993678
Sn 13.853672113308285 12.422025106985892 19.971219561569907
Sn 16.539696490968208 13.39206105925482 21.341424941082124
Sn 10.777887213033985 17.606446038069283 18.918504741450153
Sn 12.333202246557445 15.055646268541619 19.21498330095603
Sn 14.142653234082246 15.412650892058167 21.659293633969668
Sn 14.127815831903144 12.718979689548718 22.86693730935326
