30
Energy = -104.8087428 eV
Sn 12.818957280897388 18.00259714720673 13.660081238722466
Sn 9.337013789124567 15.236070736549115 16.715389787589686
Sn 10.150876259555638 17.420863285149338 12.239471475165903
Sn 17.375737272463216 17.230653952938745 14.151797440892478
Sn 12.407573950476685 15.287842768286781 11.532753837899575
Sn 12.48447351575882 15.839078461839149 17.038307170991494
Sn 14.833474605666858 15.77184339113479 13.388281443267532
Sn 10.969476668235222 15.555628790287368 14.240905249100436
Sn 9.237651471006371 12.297282207469204 17.12476027284716
Sn 11.245024118621105 13.807376539916007 18.679986048430624
Sn 18.653744258883393 15.910956886845836 16.737073604554478
Sn 12.446342424422548 18.072164050041714 10.601298961786432
Sn 15.065823627071975 12.644268803100358 16.145844382529024
Sn 17.35385160024264 15.119403214583217 11.790855534931518
Sn 11.78407267716951 13.052542426449351 15.764984777541857
Sn 19.564990960270322 15.081225336653013 13.950255524983358
Sn 18.074397011763004 13.053632531851346 15.90010780520982
Sn 10.902142772651114 12.538432574551623 10.878166283853606
Sn 13.611465530908616 11.370348220851115 11.702299574159502
Sn 15.776896823989444 12.903677095970535 13.342047992410588
Sn 13.33024391175701 8.59228658445938 12.951465116245068
Sn 8.747589227077057 10.460255548198816 11.554480209417436
Sn 15.763885048472702 15.476792160414407 16.240989855842983
Sn 18.645603268591863 12.41115714276212 12.95496124197076
Sn 12.93323512105203 11.652942798350372 8.72967076200003
Sn 11.151367428030705 10.72481950842813 13.45097167017759
Sn 10.392093899799043 10.069065657714033 9.019822826238354
Sn 13.379381367836194 8.88264197261956 9.919671208955478
Sn 10.653261890854237 8.134518285710854 11.66745198150713
Sn 11.132855922242845 7.241094429285352 8.926476957572515
