39
Energy = -122.4001364 eV
Sn 10.852617462634761 0.6025372964779 23.152253585706177
Sn 14.42182279376794 11.309228356283523 16.213033264605823
Sn 14.800164980070125 1.118241126479024 20.41858668506645
Sn -0.08374421099185193 22.67713463086249 -0.20863806100160093
Sn 15.568051040688829 20.285872279916457 15.432599044486171
Sn 21.46677265976983 3.8513595593362564 13.594826184443038
Sn 19.209364291061092 21.008108470433953 17.897089829255922
Sn 19.80822215893273 18.19835232538129 19.430162504865763
Sn 23.166100628191163 -0.588777662452536 12.067330957748398
Sn 23.51875643940678 2.0934122221933142 12.82826517830558
Sn 22.115505411347822 20.719723129056387 -0.10260621431797985
Sn 11.641418885673437 21.856403765355097 23.65982468231928
Sn 23.106095217505192 17.330315262457443 20.82107922061787
Sn 21.07944662002477 21.34492035527408 15.574582673030918
Sn 21.33607193231247 19.75455156277389 21.47198032285831
Sn 22.484682086161747 14.222537478706226 20.946965134397107
Sn 0.8132301571134805 14.77463086422407 19.514347536577592
Sn 23.01705179039007 23.607455013083996 15.03088548016665
Sn 0.2045464895260871 14.565626252067624 16.573431709910285
Sn 22.884209997810817 17.445673518962113 15.775402468304826
Sn 13.152993099604839 -0.6072013359037086 21.743071923201935
Sn 17.268774073864225 18.815398487695447 17.17566122385102
Sn 13.399354970989569 10.983028358394225 18.836507053611818
Sn 1.505474762679901 12.191250853191944 17.973404099555143
Sn 20.873178499928134 1.0832682513852874 14.013281844916772
Sn -1.5011141622683293 12.861173027191576 18.416533891034334
Sn 22.11359017780904 19.70096994543756 17.914557037422277
Sn 20.05009334295894 18.406894518219893 15.866893725127879
Sn 12.523223111500014 11.34013827194801 21.84810832930333
Sn 9.102419378631055 23.071194038106082 0.2261940514147941
Sn 18.315411135328045 20.767020801369853 14.848809632169534
Sn 0.5804984763386682 17.452292567082665 18.338476012122563
Sn 12.950451185109051 2.404674166533098 22.21918898199663
Sn 0.23622836231572966 12.120129049301273 20.698762683273507
Sn 21.93891454530175 15.855839353804818 18.326038646981438
Sn 12.209809470902393 13.674403824259521 -0.7918028765679804
Sn 12.283456766964024 18.94853132542503 0.22645090275435983
Sn -0.787705778620456 21.796052415774415 21.40896186533511
Sn 12.381663830563431 16.174282028575423 0.09991169308732802
