37
Energy = -129.22062101 eV
Sn 5.689360676537834 13.970370636789186 10.619389267217391
Sn 12.84187529063472 16.666316168176273 10.462960198394331
Sn 12.957011400119548 14.162151775224585 13.994393568940586
Sn 10.219954477081881 12.842213292194817 15.278870623782977
Sn 9.891171429377428 16.25280160566661 10.5268907529529
Sn 9.147018677915769 14.873389767211481 13.228673609727513
Sn 13.05995363646644 12.12836301626106 16.134664162177327
Sn 8.54986487816101 13.484701476837062 10.30898255904371
Sn 6.575981773096292 9.792487337685769 13.411373733834976
Sn 11.521491170135166 9.544284441677846 16.430815271467868
Sn 6.768288255598802 12.97230348100422 13.170692315446203
Sn 9.336441540007028 10.135135981459827 14.586727927660421
Sn 15.54342366338451 13.540210061450138 12.474243474487468
Sn 14.155394598215228 11.735585883719434 10.272934545513365
Sn 5.704575918291344 10.98964844968934 10.73866963667864
Sn 10.756745427373291 12.138909759137011 12.29416512070511
Sn 15.027765727553204 14.633696859295284 9.75216698136851
Sn 11.785426413949024 13.764727581878768 9.871416687995326
Sn 10.171397254595929 12.34919772425412 7.718122549841361
Sn 8.732670315724084 10.032431081805882 11.282168073017377
Sn 12.939918812208493 10.920045267071316 7.306003880701958
Sn 12.300497108985075 8.401504761330816 13.76290835948358
Sn 7.520008891062351 7.138781558326585 12.124266386212097
Sn 11.929691308105825 9.54346039925295 10.154635830269722
Sn 16.956777778294878 10.717653975000129 9.584758202845544
Sn 13.685616733354207 11.000466862592496 13.356563907729882
Sn 8.328204425372684 7.668715521400543 9.255506328219338
Sn 16.789287457305356 10.831340608077738 12.673304009026836
Sn 13.458114483125827 7.970425105865158 7.815070141132455
Sn 15.543365647605816 12.553210061506206 7.600775893439246
Sn 7.665499862872712 10.51835476429599 8.394578147446811
Sn 15.319502136764948 8.175478020227455 13.233047582419669
Sn 10.457619229101272 7.179154325466616 11.817869159420416
Sn 10.429796806004983 9.099880355534347 7.277606707952961
Sn 11.046308991262956 6.353084549253518 9.012563171246804
Sn 15.015938167579078 8.670568669590454 10.339581700429422
Sn 11.632145502262196 16.703054679275436 13.186745397256358
