38
Energy = -134.09247141 eV
Sn 12.940926259945181 7.217068034273742 5.813007072499737
Sn 7.257799185479193 11.72002026371392 5.162540055685395
Sn 9.735437393542107 6.143971130964285 7.196344362141363
Sn 8.642258180508295 8.244972204527768 5.2584966205282075
Sn 10.850187454231868 9.658918003013742 6.872328417492952
Sn 5.708635078718463 8.823917295817637 5.826368650529759
Sn 13.368373100933388 4.975131996668043 7.86771404564168
Sn 4.620655556981379 11.379761508759088 6.937536313241352
Sn 6.23378977008549 5.401793056091712 6.703317353560785
Sn 9.4879172086072 12.511617202912255 7.080584009023585
Sn 14.027693248460116 9.936852388310683 7.103197549949287
Sn 15.5508316888556 7.239006202465005 7.575783695763204
Sn 12.564625678786902 7.748534578759489 8.810406707259702
Sn 6.527093669844866 13.45607792430262 7.6506670057920685
Sn 7.542418770853053 10.306656555651973 7.9334688345807285
Sn 8.783370328950792 15.14691809452934 8.48191431248546
Sn 7.860113756675095 3.8211040341933877 8.83301210288738
Sn 4.26295555077089 7.357080562944438 8.173435585967848
Sn 11.721102466937456 11.528892923114443 9.558066915526458
Sn 9.075556371850077 11.69984919178605 11.004442931795229
Sn 7.292415445587682 7.058527897972308 8.986008557493028
Sn 4.963203168665876 4.666345859530832 9.561320267940811
Sn 10.713992629104323 14.437413413733399 10.750572278070898
Sn 5.885231430429521 11.410469689208279 10.29493159879936
Sn 7.433115397599423 14.253672051914926 11.172451500506694
Sn 14.952635932400634 9.218648679309974 10.044390809598612
Sn 9.812369246707727 8.734684020529633 9.791562359956835
Sn 14.575528172216664 6.167990305747423 10.394132741840826
Sn 9.590987280104644 13.984055245879699 13.614949007463686
Sn 10.251481031734727 5.524667840492904 10.196095953496242
Sn 5.23727674963807 7.611887473246972 11.07869160279225
Sn 12.267858613805439 9.52369038260478 11.875340431716976
Sn 7.3245982551268245 5.201353285616655 11.520109945880378
Sn 12.27117721729599 12.575436526549444 12.640888083885784
Sn 7.609909579069899 9.25364777479177 12.356828004881596
Sn 7.189513473433517 12.055421490973405 13.598045959073817
Sn 10.096023474826138 7.457816482260944 12.609356465135484
Sn 10.069104665126975 10.844290910728787 13.969854373006076
