33
Energy = -115.20963882 eV
Sn 7.920482381808092 7.6702541827156585 8.510748009607386
Sn 12.35215959944339 6.386897545656935 14.520784839119312
Sn 7.75090177258268 12.547984488911771 13.18656062761719
Sn 15.306366408897675 9.9698789718154 13.170683697567553
Sn 13.329202039305063 14.704244585495678 10.492487447431369
Sn 10.059268373090715 13.319196290153 11.276205696927411
Sn 13.595472751630316 11.340976555437658 10.61541259414672
Sn 6.123693223031288 10.159201086289803 13.077372756591389
Sn 11.159661213055617 16.43208809548096 8.985667130490855
Sn 11.177625225773319 15.939512197911686 12.50235838254858
Sn 12.206127458034555 8.044229059382552 12.099246340250419
Sn 11.989387474370362 11.974398746723205 15.910639515565846
Sn 9.826560373713134 14.06551177901884 14.76112508198252
Sn 11.896119930099424 10.394703300977975 7.849958135549964
Sn 11.55594940787267 13.358885295230131 8.425844999139423
Sn 8.691220270237585 16.187317641504364 10.776571589314605
Sn 15.804804036183395 12.777684255829103 12.379006124379861
Sn 8.739052928788963 11.890927295966366 8.62534503738129
Sn 15.049760801749038 6.965575389942505 13.417959053068664
Sn 14.892633434333922 8.208801067076998 10.614284316783337
Sn 6.953485591487709 13.86158628792252 10.424676039499234
Sn 12.879477924385698 13.471482239969669 13.433070620830954
Sn 10.218953755187949 8.970742649100114 9.830712513328507
Sn 7.321378814599134 9.954127150042321 10.394147756301837
Sn 14.959768720987093 9.965120334405261 8.186181862762476
Sn 8.767655016492215 14.911136803430585 7.9456368619169515
Sn 17.28351849699951 10.049606098219163 10.92071962661878
Sn 16.23794776455621 12.468859617661115 9.401157610667676
Sn 9.162016945029224 9.688034454129172 6.739653499451086
Sn 11.297019055132811 10.853083639388442 12.98641974196964
Sn 9.180060184433081 11.010954436529625 15.47701402043186
Sn 8.878612472115945 8.971129603610335 13.185240082719337
Sn 13.121089317527492 9.18936190167603 15.08568574201215
