38
Energy = -132.88700018 eV
Sn 15.21601441649513 17.919162559170598 -0.5510294094296895
Sn 18.036815270526336 18.4083031757037 19.69588729473161
Sn 17.86425611565956 18.23626724436569 0.8997866023889506
Sn 17.158612573609947 1.1055290436564809 15.685298985821461
Sn 15.905950913098888 17.256191456176758 14.298388493799695
Sn 17.871770337710263 -0.66911506258576 20.340636731069807
Sn 15.18407255919707 17.156661812800817 20.622882432808314
Sn 17.660377634572377 15.396165391379139 19.252210273953633
Sn 18.179377861354034 16.176170416908214 16.147135829991775
Sn 22.331299037391393 16.84014152742496 17.870799033792537
Sn -4.737775611797421 -1.8126601011506749 22.66753173190698
Sn 18.295810967127473 -2.7084970435447033 18.163463600730026
Sn 21.78990006368359 20.16906427694739 21.78372079270511
Sn 16.001544500527718 0.6335101664983331 18.413315921443903
Sn 17.657930783243966 16.37180625646635 22.40794116747486
Sn 20.567843459439672 14.423970092823279 17.837601424616434
Sn 19.067526010524027 19.232741349400243 22.48133280692923
Sn 19.211654901394844 0.6797431207499911 17.92524041261904
Sn 15.253361778834476 16.37249490279772 17.105861794549877
Sn 16.84610584152966 20.90560608793849 -0.1018892631883233
Sn 18.815522511578592 -1.4077939668137378 15.523901887214045
Sn -2.0723721193413445 23.160067049063763 21.930090049553947
Sn 16.045902670542098 20.007478534033865 21.31403829603378
Sn 20.948209257320293 22.51140565405623 19.24643488571667
Sn 20.56832055751772 16.283245358019172 20.467771137364114
Sn 19.317920849421483 18.998580621508296 16.33348201702405
Sn 18.758953004886102 17.60831066336847 13.46826297536774
Sn 22.69357569040925 12.149784214546814 18.359147516520213
Sn 15.334722900926446 21.7010047413939 18.85768408084256
Sn 20.908891881898374 13.244468321335395 20.822228573256762
Sn 15.719331018723272 -1.6219138884519804 15.83180303788931
Sn 20.91561278513261 19.283546682565028 18.997327843905378
Sn -2.2153314572147442 10.501152012506523 20.685348893791815
Sn 20.033462420192837 20.461744936606035 13.87057334188597
Sn -0.7028973414622358 14.75017678114353 19.65388130128005
Sn 16.2478873285072 19.15536620267165 16.984559457857614
Sn -0.1509389987116543 12.541439242045849 21.36644648832384
Sn 16.937130986295344 20.2270424239415 14.128266528776779
