36
Energy = -125.995015 eV
Sn 10.519229920074032 10.537931888683724 6.949181894846334
Sn 15.850857982670568 14.407072408565124 9.295781009071755
Sn 16.61899667348855 6.98654334846237 9.953293602864294
Sn 7.7240867125763515 11.175179505404513 15.251344956564122
Sn 12.32526545696786 12.083342519812703 11.090596535769688
Sn 13.746142875747593 12.153411650166044 15.504222297218764
Sn 7.269917177191046 12.568690198374304 12.24650066136605
Sn 10.448458654070487 9.013523771418065 9.734217981050302
Sn 15.237094473839317 8.15231952871511 7.504255957770373
Sn 10.863073807552388 14.562829695825808 10.32519845929291
Sn 8.6214798154693 8.189055613403037 7.60825965102188
Sn 10.158559898380283 12.635695221298773 13.344729551392286
Sn 13.452532648804862 16.237883640945366 9.574781275836637
Sn 13.627251444342914 7.034002772282325 9.751130808195358
Sn 8.5388053258267 15.333200204631149 12.393890849712678
Sn 12.745012538883362 10.093660808895292 13.219448283679979
Sn 15.245031415735227 12.715402888113722 11.663071875368745
Sn 15.715788000910837 10.644979199871358 13.813840040850737
Sn 10.5876770226206 15.66141035660933 14.57479399392444
Sn 11.660746072148623 7.556078942345323 12.008542184886016
Sn 15.577216768684735 9.799021271181886 10.151699229960832
Sn 7.248624081616272 14.099419588531385 15.02126364949887
Sn 8.97063071965465 9.761617337967543 12.55364633632361
Sn 13.133626373577544 13.23650755304753 8.378364799318701
Sn 13.13919951723065 10.158158888084216 8.45961770145074
Sn 12.063508602976153 11.86655283101801 17.85967433237248
Sn 13.149547378051182 14.1463517966999 13.366353656295471
Sn 7.107813193210644 9.754341566816594 9.59289431290196
Sn 5.967850826282701 9.85928846891375 12.257209343295669
Sn 9.120823736838934 11.875074548665799 9.601043877821608
Sn 14.973702366529531 7.834010732316714 12.47437081482722
Sn 10.318760761890545 13.520045475192132 7.338727138981596
Sn 10.844801823048794 10.239921386753396 15.684307196947618
Sn 15.369832041686678 15.89367001333342 12.006940584400771
Sn 12.45376283737502 16.89286230712752 12.348396774449812
Sn 9.967116884697285 13.292699215085367 16.35931963614172
