34
Energy = -118.90694908 eV
Sn 0.706998906941973 20.92921313094765 19.730650951890475
Sn -0.9673629759762188 19.35292231722215 17.94416539530577
Sn 20.82136622785718 16.508862931913587 19.305035260152195
Sn -1.2598359152615375 13.561999998868991 19.287143825204573
Sn 0.11962558593039883 18.233801483246673 20.824885757619068
Sn 20.55435531397313 20.56532005045134 -1.8614955663056227
Sn 18.636878229407976 20.372525448918115 18.307244920419407
Sn 17.707282645460268 18.761848747831763 13.324966940964496
Sn 19.81619490487006 19.769520405649427 15.555660495415973
Sn 20.78486933726667 14.929153712375085 16.559350992428346
Sn 18.845272127732382 17.26807571863093 16.959227509930795
Sn 17.696277773132728 21.887734648179034 14.149219809968967
Sn 17.941475526661776 17.876294024674756 19.82903411587615
Sn 19.94456459359169 17.8944477116252 22.075612090769535
Sn 14.830795810658 19.997338633721498 12.922886486825128
Sn 17.208670516284602 -1.7079238581954517 11.241355837961438
Sn 18.474664477793148 13.725827872594373 17.950145390255866
Sn 15.334250208233213 0.3683523076907246 12.364047618295977
Sn 16.55503063369202 15.264563141108306 19.786467306714695
Sn 19.07151887930994 14.293651571343295 21.228058346045927
Sn 19.058521148335696 11.30612360130418 19.89383691268082
Sn 16.61623409226338 16.27499826460678 15.14126517941383
Sn 14.649665424745027 -0.25816075420323925 15.206843008134067
Sn 16.223091827550434 19.876074355965375 15.931062682698247
Sn 16.837441052484174 11.191167243998878 17.750719791625123
Sn 15.452731042703613 14.069818413929665 17.00937707115214
Sn 13.59943324964081 14.848217735730623 19.592307307861066
Sn 16.38175629855944 12.27035101558616 20.75269819351065
Sn 15.328591140013486 17.616779506953318 17.69132191640144
Sn 12.96516697412259 19.67727390422761 15.172136698058724
Sn 13.681688575336958 16.782132551905452 15.16870227642101
Sn 14.00231038786933 11.92259121660959 18.931795234491478
Sn 12.305629391350587 17.079094352831973 18.082098087712843
Sn 12.419340714931442 14.435742038673903 16.633105968126056
