32
Energy = -112.09071632 eV
Sn 17.173722399741543 14.13905721929409 16.14508828530344
Sn 18.284152547361185 16.158243328394374 14.148599472478951
Sn 16.69970942534588 17.325208413517366 16.58563065609328
Sn 16.56504221313861 13.622595423502023 13.160567011905085
Sn 14.77966818747442 15.244034769824909 17.91299901110641
Sn 16.9434950660783 16.011772742662348 11.342738341142914
Sn 15.18046147139956 16.45764452324836 13.917943969851342
Sn 16.550839492546604 9.347144830085869 10.943030165094845
Sn 13.502286285348973 10.455238853874498 14.82585725978071
Sn 16.458787507464102 9.975453679101168 13.946548976113043
Sn 13.941838112029004 18.388318053963562 17.094162516471012
Sn 14.486907128984607 11.350468801207226 11.977809341422502
Sn 12.43018546570424 15.861203292978866 15.883508390415571
Sn 15.800548730903296 7.14065808161807 12.876807908720458
Sn 11.611116515718077 18.686849311421966 15.299438906748666
Sn 12.186386036617385 16.694130009202468 18.87769135805478
Sn 14.955958764053795 7.905859962360494 15.690455300589315
Sn 14.609023600979755 17.89522955426061 10.838250568345602
Sn 11.696070226662318 10.12388608413378 12.430250556395336
Sn 14.25698962837906 13.52434538195669 15.23817039913877
Sn 12.303910202833839 17.427866971819938 12.720350432247322
Sn 13.666102314123236 8.51909618367141 10.760707831895411
Sn 12.645561492834794 7.575374447017765 13.787368503887484
Sn 13.968939235826841 14.751243601149161 10.633906102819264
Sn 13.499185950135265 5.745166835902929 11.671426560887557
Sn 12.057752745671667 14.293607163672975 12.961678651425627
Sn 9.63753186743208 16.18570482870004 11.978627182169287
Sn 11.90350144332344 17.11491208889855 9.695107153900466
Sn 9.769613889779311 16.703710395331374 16.792876399212524
Sn 9.678781198401026 12.688344632931138 12.131850564224617
Sn 10.847592411413169 14.296478240802024 9.915672481560652
Sn 9.382185675860358 14.658863279285214 14.56036564004743
