37
Energy = -129.83161221 eV
Sn 13.485325579654521 8.105279329605168 14.18240019288568
Sn 14.802178670228827 7.246598434527339 9.382215121234177
Sn 9.47605449127059 9.862114302226056 15.597813552766734
Sn 10.480115958155205 7.724347655750855 13.672694225367731
Sn 11.873646577084788 11.22907723011497 16.718424114786473
Sn 12.702309898484126 9.155154454652212 10.207243761099178
Sn 8.31107694873907 10.805562367430486 10.08494478543152
Sn 7.068505817865933 11.24586812426352 16.583381555414885
Sn 9.47920556235192 11.693224996277563 18.482788872557364
Sn 15.350119899590945 8.508674215563492 11.91749899356054
Sn 14.4652374017687 10.483969545405342 15.59189480390252
Sn 15.421749473657885 10.070337716036788 8.60318215863417
Sn 7.977076640943547 12.347567665255633 13.881131846832409
Sn 11.244956302582436 14.076702918848698 17.667498547024273
Sn 9.904085678936829 8.323035308456879 10.68672517008095
Sn 10.164305258682456 10.675186191224768 12.632440275300322
Sn 8.443569698610828 14.028837073932893 16.551901441038645
Sn 9.639198471727902 11.50496488285632 7.417474143973387
Sn 11.009099339468616 13.276415421136502 14.710759945492512
Sn 13.133789814243723 10.888373721426149 12.82021039854466
Sn 10.791803417571318 12.547552696174415 10.087879303107409
Sn 17.27714611087367 10.845145249818763 11.933288989964273
Sn 17.582275169983987 12.028307536360334 9.13617048115778
Sn 9.002696067916167 15.203482944031899 13.426487987903263
Sn 11.71489681544231 16.39608525644568 14.56616196641745
Sn 9.742444266445757 15.56999765884179 10.494017377058283
Sn 13.050396736707654 14.339274842852504 8.397181985091551
Sn 14.676036017096374 12.42032276778381 10.502431073922232
Sn 12.330204694262408 14.45047447951863 11.953886038821073
Sn 10.149431011422557 14.54864944668307 7.681049144318586
Sn 15.631125550553833 12.655863314227744 13.644442122585641
Sn 16.7262757046409 14.567589059705723 11.307853023521277
Sn 16.130572270124482 14.674115807739613 8.37188413352545
Sn 11.602697257812128 17.46760377350133 11.738473489392595
Sn 14.679199268325288 15.601166862920014 13.434827771638947
Sn 14.202246489201126 16.426427397130976 10.295012352825582
Sn 12.636434847147184 11.36413853084816 7.993818032397782
