37
Energy = -126.57203115 eV
Sn 16.154025449024353 16.174554199579642 16.58757289116288
Sn -0.1308272474519637 20.474757262498652 12.344271466164152
Sn 19.040320232841356 20.24833269080919 17.063183406647187
Sn 17.820931036774045 14.520493333382717 21.24114312492133
Sn 17.85237015023288 17.540972690046512 21.278179300624444
Sn 2.0384667620611183 22.139957925734212 12.45561834926631
Sn 18.543811934252957 15.649769779463414 14.77844378608228
Sn 14.977632872957832 13.578484641062722 -1.4788073405939042
Sn 20.847296817235424 14.575528932066064 21.06974309784417
Sn -2.4140189935656573 18.647904787190477 12.07958121162019
Sn 14.559588261511546 18.33929020455796 15.117530113597201
Sn 0.30924889717906257 22.305121602797794 14.768568042256147
Sn -0.8023031888405604 15.715895500185875 15.951508953962422
Sn 16.56398475902746 20.246924001438682 19.42820444873354
Sn 20.85387251187851 20.911282031208675 14.520166627561458
Sn 18.905388492723212 14.642231533264173 18.12725825913842
Sn 16.34487353368196 15.700105526993603 0.4905305568036232
Sn 18.62177842907502 20.676071899188333 12.636527693395696
Sn 15.97662019202536 13.813760737702474 18.68022322718929
Sn 13.659676865634033 1.942390581030895 -3.21363928325451
Sn 20.588061296386545 17.96358925908731 14.984902791471699
Sn 17.54582083347003 18.80557226371563 14.699435375545617
Sn 12.709820765540416 -0.28434405935902807 -1.6532557137676844
Sn -0.885319678113928 19.49742449075363 -3.6483290045198253
Sn 15.087932613433773 16.420936118756103 -3.0996161800378306
Sn -1.0460104059650936 13.95182117896527 18.37334756957008
Sn 15.26496615217788 -4.575822122286614 22.32421719307312
Sn 14.38868841846468 18.640628958558285 18.073118833559537
Sn -1.9562235643821737 16.97907597829487 18.467435996913416
Sn -2.7850590604666277 13.404256376946899 15.888645121752054
Sn 13.524697977843642 15.996052273052348 -0.5034569599339332
Sn 13.381889042193118 -3.0040441520744032 20.49509744929278
Sn 20.895643268014545 17.529948691544366 21.52589923071578
Sn 18.185020714099018 17.608943921454557 18.22947178989024
Sn 16.01476526121601 20.839569531496807 16.385440473731748
Sn 14.79476922181402 -0.517010605811657 19.316579031974868
Sn 22.368015448108977 19.79411172984126 -0.8385185856006032
