35
Energy = -120.89853839 eV
Sn 13.762948777303208 16.284721549946003 18.138754800252915
Sn 17.794741625396544 11.362292454750127 15.352964221975208
Sn 18.25646047896573 17.2913533684789 16.150785946011577
Sn 13.736522208740862 14.104918511174171 20.26433628922729
Sn 12.933904662420304 16.508536930133378 15.037005362098286
Sn 12.430293527726025 12.255929218242226 15.236068856523048
Sn 17.43465762823261 13.424062374590692 17.724932400974268
Sn 11.140207037122023 15.797984947092996 19.50740389961689
Sn 18.26804360749449 21.19004613908356 12.096706128443236
Sn 11.292778976052853 15.971095622605478 12.325732975877282
Sn 18.76056406327244 14.39544973557962 15.149255669223095
Sn 11.56461868179174 12.830472082766303 12.021646977606894
Sn 11.27072814950934 17.816910671526994 17.173073773484358
Sn 13.405343748817538 13.505987843227915 9.578870385060073
Sn 13.439986086263342 11.170321013737489 19.55967835536273
Sn 16.317441017578187 14.508564916958763 10.208685411104618
Sn 13.528218806862153 19.414427652686687 14.795494177743922
Sn 11.52603515665169 13.146450245878235 18.21585949339236
Sn 14.533616277610426 13.17201609620856 17.234064006620894
Sn 16.425988757787522 10.588532827326313 18.121209190463553
Sn 15.627078953185535 11.881788065925003 8.633857220959605
Sn 11.021014945126671 15.100907885544315 9.5374706994465
Sn 16.72459346775113 13.689616947096155 13.187023797012964
Sn 13.550940500706636 10.006074924560366 16.84696571277228
Sn 13.816338221971266 16.49672556439073 10.625417269425334
Sn 16.83204777895505 11.398338961122532 11.295207126924305
Sn 13.761974767916351 10.724572878165839 11.034720464581728
Sn 13.389423451383632 19.86016001022913 17.846576414831084
Sn 15.98472763476923 8.870837366671424 15.538727167234502
Sn 15.577984356839387 18.146712520996033 16.82477706504308
Sn 15.945189370640879 17.268899259048677 13.84038610483166
Sn 13.904057470024327 14.510912826649518 13.010595954481348
Sn 15.655498279821156 20.165386297805952 12.778375557485472
Sn 18.325737079305487 19.357813749211267 14.145911021276488
Sn 14.958581236119196 11.17719543722378 13.842723678988696
