32
Energy = -110.88072631 eV
Sn 14.368098418266115 11.693341410078673 15.753936976976629
Sn 14.19633408654386 12.849412089800376 18.435125807947372
Sn 16.96746801570143 15.498515652465905 13.803987414858899
Sn 11.534869197829007 16.23653090644467 14.005188549150063
Sn 12.077144046511311 11.231268910205662 13.932834499638421
Sn 8.09612434713427 12.242122773497739 12.413098762693718
Sn 14.00279611671747 15.714175838861843 17.95479853347319
Sn 9.971868969913562 13.223430289595564 14.648695428899492
Sn 15.925777039979 9.294115852209533 16.1454912290616
Sn 12.724809100264993 10.84073237015111 10.817250824919675
Sn 16.845521069788283 14.159298142777802 11.069225437340759
Sn 14.487254855864125 18.902814340910442 11.333127969800985
Sn 14.08597634900765 14.536907479284613 12.703165171463729
Sn 15.223435010859465 11.861896076527803 12.46985527172199
Sn 16.349134036593263 18.614156866813985 13.9984359116807
Sn 17.22300538226424 17.362186570840308 11.3687824485502
Sn 14.337896023858397 16.462378845404643 15.177176550338716
Sn 11.363300126327223 18.42695576108501 11.986091566429101
Sn 11.976967864209952 15.7816529017982 10.76981627818908
Sn 17.282987764782234 16.920753567862416 16.82901875643174
Sn 8.22202083919878 9.057929280376063 12.127260698778228
Sn 11.257538362547939 8.715121540856845 12.381773091874818
Sn 18.572556324840463 14.351220745994892 16.01283912673314
Sn 9.134258032043473 10.288388111967883 14.641237414508577
Sn 18.643864300862347 9.379436015122607 15.490545347271722
Sn 9.793434950376627 10.555508802786637 10.128518633729662
Sn 17.2464801047757 11.753768200955601 14.717333318745561
Sn 16.78628707408271 14.293123881824018 18.48034106444213
Sn 10.971873598207399 13.088871455425021 11.732659027732947
Sn 13.254282345208429 19.072626604445844 14.259848632443706
Sn 14.807834292692938 15.995114011609907 9.944451135339815
Sn 16.1040947778388 17.04281669202337 19.528412403412663
