32
Energy = -111.07144763 eV
Sn 12.050184166785689 10.116812888708521 18.806204514871098
Sn 15.17238288874691 14.78840850524905 17.16737800028337
Sn 13.467368310301357 12.144964834752118 17.199334848970963
Sn 12.823296178940705 9.012046405441783 16.0236182407229
Sn 10.429888986587631 10.917465671043509 16.56832480048449
Sn 17.720598906855937 12.330346446094742 14.453457652426012
Sn 17.82680755763623 15.074714249116784 15.74532748982321
Sn 13.922670827946963 16.862677604564773 18.752460822305462
Sn 15.276308326779757 10.649977564786562 15.177710280326272
Sn 17.535216522713593 11.90731828843932 11.460732120072503
Sn 8.80892072780407 12.462808735358943 14.596363790658039
Sn 15.074599939734835 10.299459664760638 12.154638982199028
Sn 11.474439774173092 13.662016215969427 15.367262767592079
Sn 14.993572140429722 14.06163676437272 14.314915895892526
Sn 10.079948791319907 10.625449972100348 12.448829499486688
Sn 17.317642179198167 14.833280513760402 12.46806937870545
Sn 12.611865533612836 11.299065008507961 13.844551568232953
Sn 13.753674852359529 17.640634904779123 15.892554543943843
Sn 11.546043131672487 15.949941285636253 17.27073730736912
Sn 16.195225740583293 17.107607739904857 14.078122666544056
Sn 12.445466246033208 9.200972811133358 11.009581993594754
Sn 12.517412408807443 14.346264560608605 12.217833356010981
Sn 13.329908487371405 11.128561943130503 8.982198949697175
Sn 14.900668395805583 13.254011735809643 10.879704134434343
Sn 11.168611913519515 16.61384679716145 14.406064754132341
Sn 14.820918835110295 13.513679012887643 7.834336240637641
Sn 13.601355370436256 17.20175037372788 12.529176895493631
Sn 10.287839278953312 11.24358150923282 9.477716315827129
Sn 9.76671324530489 13.59931260268276 11.58011567519276
Sn 13.89348561683116 16.00711958568162 9.713797470363831
Sn 12.744533492860157 15.538185722931026 6.970481254137376
Sn 11.588081604971478 13.909571718334464 8.97971021604659
