31
Energy = -108.17818394 eV
Sn 6.986088554847076 9.51949595621617 14.101713972771481
Sn 6.528696748421439 12.588386727066181 13.454067418222769
Sn 9.097650775512458 11.117093849711372 12.795892849921804
Sn 6.985802866853025 11.563073759492188 16.31151400671509
Sn 9.655487154628299 10.256887862180108 15.633551502931935
Sn 10.779165697514077 15.452646595313485 15.649167400491901
Sn 9.124210920092398 13.166720388302352 14.93824883128379
Sn 12.62219102473444 10.849264021977255 15.126223645912168
Sn 13.01935672552961 13.638919586645292 16.488156088830966
Sn 15.960031009016092 11.55894990296154 14.308488712466396
Sn 15.058648466896893 11.583037380169907 17.28451464296826
Sn 11.383254514940978 15.53181798321388 12.692470664579085
Sn 12.768253634978878 11.116799634238793 8.444969621396776
Sn 15.27892334023686 9.697540380185174 10.63886820853541
Sn 14.358580306712376 13.72351526052619 8.202467580379913
Sn 9.441044031796547 14.430138954708701 10.701901089243133
Sn 15.846652050002106 14.341431750454671 15.663915936516842
Sn 13.754321350924053 14.08933287307774 13.43687253863156
Sn 13.644918043715696 8.34436572490593 12.905899469908874
Sn 13.238867815543877 11.332561110923917 12.192410973988938
Sn 15.461421102277724 13.043930237850192 10.869022918126415
Sn 15.010967351041007 8.977300110324013 15.659761273401077
Sn 10.878350392791246 11.832734518935922 10.602842497392484
Sn 9.913140875928928 16.18225569569776 8.253876600553463
Sn 12.394748195683217 15.996028640053531 9.666410736369327
Sn 16.692577293507615 8.558500872614369 13.064034895526646
Sn 13.792515759131632 17.27385030175616 12.152790606603016
Sn 17.703786295251753 11.277285823137735 11.899051717405419
Sn 16.307812198137047 15.493103574320777 12.540354890566684
Sn 11.211414207862395 13.585792599767155 7.866254569339991
Sn 15.386578660850454 16.189005083051203 9.703422899268974
