34
Energy = -119.144009 eV
Sn 6.567668771356782 13.015434178015438 12.978851416241982
Sn 11.722797216821732 15.392461914890196 8.746428965215332
Sn 10.603668705908186 10.173730861457717 6.2172548984229135
Sn 12.271896260929509 6.823647673600262 10.493533449882797
Sn 8.66738467577509 15.641724545086053 9.525403467961292
Sn 15.653330469438654 13.313895438339221 10.870225177653118
Sn 5.760402931744251 8.383160322145004 12.20379790011916
Sn 14.441563723125176 9.729191405937456 14.490187267792349
Sn 12.204274260790447 10.764660111348928 16.330373624798256
Sn 9.278481685449677 14.263862212015557 13.43137947741876
Sn 12.268463932127373 9.455375774654405 12.14011686048498
Sn 11.478115480691702 11.514919187828813 9.656906944652283
Sn 6.426790762168887 10.930858726681969 10.753775222648676
Sn 10.910644009254119 15.852880611339467 11.58102805314815
Sn 8.861584221756013 12.773721060460701 8.823142847668322
Sn 10.6778348387494 6.7067421164744845 13.377292088069915
Sn 15.075615819949508 10.555150339559269 11.654470792967208
Sn 6.970895642415963 10.28952286007627 14.128621259181237
Sn 7.582292731288209 10.063191203828108 7.975702087740925
Sn 12.775613048828864 13.526316415408706 11.40549519235704
Sn 12.198809023870941 7.749869906574373 15.80541390270799
Sn 8.641107020692127 8.42218837800826 11.817335231242893
Sn 11.548149513412918 12.325174552583821 13.906676820697703
Sn 15.251650082027478 7.781063352747393 10.594645428859373
Sn 11.749831643395805 12.825485876491022 6.838993579799767
Sn 9.88773656573685 9.646192378398855 14.568845484667516
Sn 9.520939601639027 14.883829758901621 6.549214793197474
Sn 8.333984641682713 12.031037401053963 5.817292273073856
Sn 11.93190298898457 7.733633598841726 7.117800411201827
Sn 9.200040150917003 11.59559077072765 11.921259673051782
Sn 14.316747095141194 12.290561059388356 8.442771084684447
Sn 13.862750499097807 6.937242450347669 13.389025576045869
Sn 13.995444141559542 9.32944851472821 8.434229962828994
Sn 10.143916250884988 8.90956210866099 9.25799516014795
