32
Energy = -112.29239561 eV
Sn 19.207123628071237 11.725325985586519 16.973994370553108
Sn 9.35291176399858 13.257770605180927 17.59194465506896
Sn 17.80995681282806 13.997786345096547 15.471051999558341
Sn 17.918737219252762 9.596082053495556 15.522317058106877
Sn 19.51048210458004 11.817626074086022 13.869874948015164
Sn 16.069026158112987 11.723915548856064 17.19286558551729
Sn 12.695899529675348 12.578384689089905 17.10471698987129
Sn 11.62030028705713 14.865675226049506 18.64144074704463
Sn 16.46805937425444 7.737328330174256 13.896925067682776
Sn 8.35695638314594 14.309039370682846 14.84392474400759
Sn 17.187665039413872 10.242145664285403 12.536661212873728
Sn 14.768732721202813 10.009393027200694 14.916778011214486
Sn 17.115368997208126 13.305852098591263 12.527139733703201
Sn 14.91675624967124 13.183860694809832 14.799919470672195
Sn 17.755115144056347 17.335224106329214 14.55222751309261
Sn 14.847261994925265 16.294499376530865 14.711616002973525
Sn 14.359940406730168 11.670999608655661 12.230832480699588
Sn 13.155469208831374 17.03193133719151 12.29474264259505
Sn 12.649518633548922 18.39088784914086 15.010767694145633
Sn 15.537482651760333 19.233998262180215 15.455537864264093
Sn 16.000834401727296 21.68893939084049 13.906197352740222
Sn 13.788072147980655 20.124242900753373 12.784837343010205
Sn 16.24189379450758 16.45929500289106 11.986978098267437
Sn 11.15724226585168 15.266217753622882 15.818027573343679
Sn 11.216278699130196 11.023228101834894 12.520107711416575
Sn 12.198612025031524 14.061484219374849 13.24667715181747
Sn 17.026982474759166 19.416037750642648 12.386527346954084
Sn 10.50085146101568 11.88541220493865 15.276533838565014
Sn 9.44127003277447 13.689211925941718 12.017125037257385
Sn 14.901170474942518 18.691501321534183 10.36741696108016
Sn 8.030795141717732 11.40020723626048 13.65973989962853
Sn 8.8033956404187 11.185607625837026 10.781702186464896
