31
Energy = -108.35071291 eV
Sn 18.375940212287915 17.884280280649612 16.467807465712678
Sn 16.36535027173055 10.547733586200012 15.566660211899462
Sn 16.81050226415147 9.64475886488986 18.733447912114233
Sn 16.11250136599872 16.73824509993273 18.342313212540535
Sn 13.10683834113304 16.98663273088283 17.295365952105076
Sn 13.196328431022971 15.839460087797159 9.807961376273067
Sn 13.853155245844444 12.431818684558447 15.810511618840625
Sn 15.530453354358254 18.230828845242936 15.417661397067704
Sn 11.454921268532514 14.195610621394195 16.98070143684448
Sn 14.578674249522964 11.143433172207699 20.22203801529597
Sn 12.113025838174297 11.6223444256868 18.398371969307313
Sn 16.539212822832006 12.428509128110358 17.938723875827854
Sn 15.329764638269914 15.107549410435483 15.834832769846793
Sn 14.114435737246362 13.9946420987817 18.92934276535559
Sn 14.677227682198414 14.797055486378005 12.545104025939974
Sn 12.464923161518948 15.726158562322754 14.460024669500774
Sn 12.194099893529142 17.758551912829674 12.143699476039531
Sn 17.15514770525647 16.62792844772208 13.550158088907686
Sn 14.592766982791511 19.772638784450578 12.911033295933647
Sn 15.462503497615748 17.468140039047586 11.118912403950056
Sn 18.314401084576858 14.84854514654059 17.2674544213218
Sn 14.112591810327102 9.67043500067259 17.422840063879935
Sn 19.681822064304693 15.6383780330366 14.66001336428026
Sn 14.756887151641168 11.742657130838166 12.423307604008295
Sn 17.488730296942656 13.496735816183447 14.414369954129283
Sn 12.947938834302118 10.912810320768587 10.118502480611651
Sn 12.316876430183084 13.244451792116928 8.342497358900022
Sn 12.103344771782437 13.436404881041037 11.487335865353648
Sn 11.7358919761804 20.590895591799487 12.884692987164046
Sn 12.341729683228264 18.93287770446602 15.166520165532392
Sn 14.950908224161905 13.186992099567549 9.73173920697522
