35
Energy = -122.89568275 eV
Sn 13.690673003877814 20.514369198769376 13.52114743967044
Sn 16.558012202339626 12.47973789525862 11.381847067817166
Sn 15.769844514689748 13.45329398091363 19.581636715018316
Sn 16.580372642037542 11.635106717669872 16.974037636867685
Sn 19.776455782653613 18.822417390294962 15.20022093819557
Sn 16.624351197896473 16.782817576124337 15.96124636292178
Sn 12.87084387313763 12.612810795833763 13.660995989642535
Sn 14.3368724548099 15.638444894927918 17.984376356816018
Sn 16.786248603362203 17.538891158420075 11.654135896745677
Sn 13.84137740292383 17.486462184558135 14.869890462947486
Sn 14.5014453891559 9.395224665935544 16.501046502686687
Sn 16.501383445583198 19.513207968144606 14.064627391165342
Sn 12.853322855932563 18.215595567344185 17.87002760979894
Sn 17.576617382281267 19.645617395826537 17.12634118679625
Sn 16.79349486957724 17.31953354133257 18.943818909851412
Sn 13.93627524352456 16.646406475956944 11.075963882837982
Sn 11.327142616712251 19.34659412440412 15.479761602595987
Sn 19.000821112432398 13.587233249299658 20.452575651224326
Sn 18.149684382966498 14.547698754608467 17.711441445960144
Sn 18.425418969950083 14.928439791111169 11.454132020024826
Sn 15.695359737308445 11.2465715788331 14.068883921192931
Sn 11.96492750924003 13.876976165953378 16.22219814286539
Sn 12.600111262646731 22.078399112052306 15.792895160910126
Sn 18.734971602051555 16.26401735975844 14.026835916698849
Sn 21.108426158692488 14.432526700110653 18.558425437425186
Sn 15.651423354164464 14.952642848212674 12.904932671002994
Sn 14.630320089244359 20.211302203133776 16.745990177360103
Sn 11.59005044210238 10.763078860430122 15.893746286876706
Sn 11.935220087157601 18.319870185521957 12.669085996691887
Sn 19.43522064839731 16.535842566288427 20.312304672144094
Sn 13.564903153201021 11.866445339064265 17.964764206376756
Sn 13.266886995374279 9.565469028799908 13.730793282151527
Sn 14.975985809134261 13.834079798309665 15.591493206628265
Sn 20.137021664671476 16.979025226965188 17.458784645178405
Sn 13.782869832076921 13.599108450791753 10.927898578242022
