36
Energy = -126.28633887 eV
Sn 19.545281264738428 13.408282464274706 16.70995633291138
Sn 18.519415563044415 15.965527922969763 15.320542867943255
Sn 18.587950195577566 10.90442305416423 15.173688225599028
Sn 19.498128442318375 13.552444861247093 13.648316888155488
Sn 17.47488106233358 11.710383219765669 18.038892295999386
Sn 16.907542413663112 12.183215892045409 12.948917671634543
Sn 15.481746878874988 16.11541452160005 11.139667323977461
Sn 16.140702840793487 14.835778114402506 14.027108624271852
Sn 15.764520570042704 12.175465146676705 15.742228518596585
Sn 13.347239631039107 17.993425532542325 14.356111049604825
Sn 14.29491490829444 17.73070542554449 17.34770010916934
Sn 14.035572460917448 8.38865062243001 10.924295410096349
Sn 15.312225611143681 9.309131322653448 13.591721928592317
Sn 16.64889353108402 14.69944215889107 17.32747691478439
Sn 12.663853317727543 15.03026822572958 11.061936641697857
Sn 15.104763612216018 18.25903171922101 9.156668688775582
Sn 14.896830972495895 11.389102173957266 10.78849445642638
Sn 12.942683201419017 17.932637794870363 11.2397966475469
Sn 15.581620360812861 13.965894674030379 9.185376057765549
Sn 12.164337342755292 10.514396347437248 9.59744229673448
Sn 13.608454501917285 15.204752263071045 15.706881674037618
Sn 12.490463252845553 8.273110067591618 13.952546286182223
Sn 12.36971983757227 12.340443075172582 12.091808986189292
Sn 13.489523413103987 15.931163010532325 8.401236127607133
Sn 13.167412283416562 11.16548824761031 14.754910073120358
Sn 12.432729143582023 20.032968247414384 16.415844651232437
Sn 10.308601145721408 18.752015321765096 14.670592562563591
Sn 10.936698933984774 8.261880680011696 11.277534817737289
Sn 9.642913870319074 11.163972808040505 11.234318036288277
Sn 9.851938753926046 12.566284248184724 13.948783049474287
Sn 10.7570798415574 10.771770129864363 16.308142609022084
Sn 9.543983630303314 9.318160694932956 13.819962281313959
Sn 11.029991210517986 15.789691096090454 13.908603840262233
Sn 11.385280781489111 17.322232566638444 17.23891953708385
Sn 11.008445135508827 13.903792738135838 16.56570762974583
Sn 8.977984455479977 16.105425098642744 16.16881814685081
