33
Energy = -115.17918332 eV
Sn 9.177779066626483 6.310659970318536 11.649367884548269
Sn 10.445950358532082 13.287492276053833 9.793431555493013
Sn 11.04466469106454 7.098631011548363 7.744587640134325
Sn 14.09807114758482 12.937018327375181 10.961929335652805
Sn 12.140539222363389 13.995594473926557 7.268267113795781
Sn 7.59500589125048 7.454398198487997 14.02875450199361
Sn 10.50279418906368 11.703070796286458 16.022793230815882
Sn 14.54604998158565 10.021919325046195 12.836221277992504
Sn 11.559563879691348 7.10507205113921 13.285649005904931
Sn 7.560411176693545 11.981618304790162 9.176243421052723
Sn 9.92948141413707 9.07260484088931 14.871976120543167
Sn 10.322044573602696 11.460244524449864 12.97629764553819
Sn 5.911287515908894 9.965651622536127 13.711360079366646
Sn 12.672319551291539 15.449382457248833 9.92974360742223
Sn 16.322322544405417 12.334060450041756 12.86921455882905
Sn 8.318903590701261 9.453085767755084 11.864167187844203
Sn 8.855169808207817 10.582609947738016 6.855182087127446
Sn 8.613261123593208 8.29873291922477 9.073201176033399
Sn 11.45279152574519 10.011888598512114 7.975303686778789
Sn 9.245882369721 13.973332697934902 13.984313994524891
Sn 9.093120438564704 13.750691123991542 6.916230299025334
Sn 12.230059596168196 10.646556681170823 10.897768882338317
Sn 16.09217621066285 9.281719109559328 7.984709983360611
Sn 11.873809018478665 7.720342502444919 10.41578220062305
Sn 7.7873605381834095 15.04949729290361 9.573672930863436
Sn 14.567765842640817 7.070937029223505 13.094522028860043
Sn 7.193165790840395 12.363535038487047 12.312314890334132
Sn 10.168079770121897 16.316233799886252 8.186618637960292
Sn 14.108139370013744 11.499960142096105 8.289861026194416
Sn 16.60252202012715 10.843896282394198 10.41390780661633
Sn 10.069456564682232 15.936691428416193 11.396322156282762
Sn 7.621257680320933 11.706448277065546 15.466032667251175
Sn 14.987134531037244 8.080028959289308 10.355998905878225
