30
Energy = -104.29197393 eV
Sn 9.193449368933859 10.054458038547127 10.406878384792787
Sn 10.08870829216174 13.054309554269796 9.077477333573473
Sn 13.20293387767254 12.50151412080491 9.447067012829663
Sn 12.088709411617263 15.317360322532249 8.417963272997975
Sn 13.995878748921525 8.283562027932692 11.748884885286465
Sn 9.878311542443498 15.954179479795421 10.502009947019042
Sn 17.38968240779604 14.836032712602924 11.118754611214927
Sn 8.308951156286087 13.219142098910881 11.628530953758055
Sn 11.396423203987187 10.081809177675538 12.343040749465468
Sn 14.30983499726109 11.343415753004473 12.143713337336369
Sn 12.77434430417456 17.63767131284798 10.246866796547385
Sn 14.386580543329108 15.064731983636811 10.590106288804812
Sn 11.285582621272798 7.407345473457738 10.802555322805292
Sn 11.388615948898073 13.361806245936922 11.843245091522993
Sn 17.23208558041582 12.232492556161581 12.573163823624078
Sn 12.03024796163364 16.2057503717006 12.688160526757605
Sn 14.424476641463738 14.278751209343875 13.51941808095475
Sn 11.948985143259074 7.500564566799283 13.92486035276232
Sn 7.9347300394227025 10.56450707158088 13.329435404881272
Sn 9.084986000482631 7.743700576552035 12.833301201104891
Sn 16.37702837100482 10.00795270660361 14.165850988302246
Sn 17.26832470214367 15.217711800821533 14.101923035597215
Sn 12.941785698389912 11.973681899015151 14.801088472675238
Sn 12.041483919530123 15.071672456938881 15.446183930194394
Sn 14.844553509200525 16.96993140661701 14.964173149578535
Sn 15.993365517325035 12.554336803340943 15.617352688454519
Sn 9.665185428551352 12.980550065557443 14.393299226641899
Sn 16.73235982050966 15.11935997595206 17.021301271337197
Sn 10.363871248634446 9.916072831397395 15.202256343626633
Sn 13.872792331110805 15.989893737495061 17.545405853385688
