36
Energy = -126.33300328 eV
Sn 15.01619979739083 10.72309050435676 12.773667862713268
Sn 13.371317256559921 9.696273219010738 15.116723349360594
Sn 14.510436865739774 8.19763577106312 10.856252024056593
Sn 15.19045974795289 13.24487615557031 10.953235008848925
Sn 12.405409918095899 7.6031192972437305 13.296748712961653
Sn 13.681655973101373 13.873944233433646 13.663894651671244
Sn 11.890488392160732 5.7655616757470405 10.982655513062639
Sn 15.114402889087009 9.704431671704272 8.148491507273967
Sn 11.955406372712808 11.393193292582621 13.06775979953662
Sn 10.18774345631066 9.962216611255824 15.328486063625306
Sn 13.125165501342577 10.905330607961096 10.30484969549802
Sn 12.70744044111755 15.107347686005804 10.985777940837401
Sn 10.967975868078236 13.438267813850134 15.096573629132532
Sn 11.614173002079296 16.188938576468882 13.675384375877098
Sn 14.057138381870791 12.688820917498488 8.029564299422267
Sn 14.093426658794163 7.914049071290497 6.021141825475881
Sn 12.708768202271049 7.326364507460133 8.472995874213476
Sn 9.60595766924843 7.122275824158397 14.232430153400047
Sn 8.929592578197243 12.376921956545576 12.472754995571353
Sn 12.582911036362768 10.506991572420445 6.3569412206598
Sn 10.025883664807582 9.043161370648315 11.839758437848904
Sn 9.709849759928328 6.999689171714164 8.909100421213063
Sn 8.766980093654166 5.911999753032249 11.585185862293454
Sn 9.754393801881907 16.105797777083534 11.071363090411914
Sn 8.701915323387652 15.057488901915498 13.82624520881397
Sn 11.111021761860494 13.501916727125893 7.115363250878659
Sn 10.609023373272489 13.079138650092984 10.056081632143586
Sn 9.661859902719428 10.938309708908546 6.306713813719389
Sn 10.664673632168304 9.896918159312916 8.90762177873747
Sn 7.522946737888961 9.918439579874567 13.84514520246423
Sn 5.902755859099161 12.029605453734373 12.082651427526985
Sn 6.818128876772714 14.83751696161654 11.364869178218095
Sn 7.13645912277226 8.427923287338286 11.167514645434796
Sn 8.454951854865927 14.753145761013787 8.568091670217122
Sn 7.679526329646739 9.496487291912567 8.273845959956313
Sn 7.393254297400622 12.185167120613244 9.547066837350432
