31
Energy = -108.27018536 eV
Sn 17.249363347984385 16.891871454349445 14.097635623376796
Sn 15.373789458684273 17.436008735684 9.075201268238885
Sn 11.601675907316045 11.23172573584909 17.50786504521105
Sn 16.88770539438147 15.59810688780456 17.09360112811972
Sn 11.076083581247785 14.128260691090327 16.27189289115582
Sn 16.863975631517224 20.036263945150356 9.690244958744225
Sn 19.335012221741145 14.027670713986168 17.726592351222706
Sn 18.144071394306536 17.45749152221153 10.684668785222566
Sn 13.2356595567742 17.192179044854313 11.32478067716553
Sn 9.498256603367118 13.109752117602913 18.463901078028755
Sn 14.102472570478808 13.220437046704362 12.469846286629618
Sn 10.16193058127923 11.6086781847686 12.575181327491991
Sn 19.053854382414393 11.933698737378805 19.84290733844532
Sn 15.967698259094426 15.565350294118815 11.602250618783184
Sn 11.87911451066928 12.678524945900396 10.404401387201972
Sn 16.177845012718837 10.788355231325918 15.679846461700098
Sn 15.212593788529643 13.655218823302997 15.348861505909813
Sn 9.085081477707803 14.010252070796385 11.261522925517092
Sn 15.855182210125095 18.88537393186485 12.287073377218707
Sn 11.376305138528362 14.547062515566976 13.064390223952703
Sn 12.311230652478685 11.839692266382356 14.627724581238676
Sn 13.6084367435677 15.60842120133526 17.167842612791045
Sn 11.217388456979075 15.451947116151112 9.731611641879027
Sn 13.916204914299398 19.988899621502664 10.290080575648602
Sn 18.98069446504076 11.02799379239182 16.81352133976501
Sn 14.267699380992388 16.451709436231752 14.105595666531526
Sn 18.166305996506434 13.33915404361046 14.958774647932525
Sn 16.691589796605506 13.758037193739927 19.568612076562417
Sn 12.223330185807805 13.877641144970806 19.356360088337198
Sn 14.432324565277744 12.385266922204442 18.016812388214856
Sn 16.613113604334334 10.533412136154027 18.758922697367787
