37
Energy = -126.99553068 eV
Sn 17.758117288116516 0.4049125393193071 17.02422705550149
Sn 22.062846651136397 -1.3280425012632524 22.366547529974085
Sn 17.539236311325304 11.078479010299922 13.57595588813107
Sn 20.15292520836182 -0.20066201049935192 15.376756574800812
Sn 16.318654725913024 17.600602236433737 16.085665133861642
Sn 15.636467701583394 22.275558525321163 16.839801418493263
Sn 16.31796811940741 20.249907565784888 14.689704515596786
Sn 17.417685819052238 20.70720493418557 21.295623490488524
Sn 18.058022846039254 1.3122816939674922 22.451225467843518
Sn 20.673097078261634 0.8636261917256393 20.87595851577022
Sn 19.21479978002314 -1.369599044298042 22.818426043184946
Sn -1.0609126259642974 15.16866617015411 22.131248325375104
Sn 21.488607968076458 17.391249104944695 15.841374612929382
Sn 15.346085037709637 1.1859145603109875 23.529238486732268
Sn 15.919116882106312 13.492941753499137 14.340430193544211
Sn 18.07315069247031 -0.5352127480451082 19.877523262304944
Sn 21.867636689699886 18.53718347632352 18.586650925422173
Sn 18.98263087722713 18.697683533710606 14.54331064955856
Sn 22.14927826184637 21.254354701370577 19.723260138059985
Sn 17.18968012581174 14.79796401373941 17.27717512783151
Sn 20.06638755780087 16.203741108311174 22.871090090993018
Sn 20.345315960186426 15.094912833889925 17.47770367478531
Sn 19.296195170970005 20.30560141456466 19.103126696099515
Sn 18.661043688030176 21.361962660717385 16.39861510828097
Sn -2.0307510719536173 15.23056385480056 0.8223541288495483
Sn 19.180327914199925 13.218051232773638 15.120120271812391
Sn 16.633915299560467 9.057947605944728 15.517680799634837
Sn 13.258460690078119 2.3095508721675113 21.603943365756596
Sn 17.828375784921185 15.744105626322485 14.24279047474356
Sn 16.966622935462553 11.692200757718885 16.712356521389804
Sn 18.913528369742032 17.74407251780804 17.53212724498096
Sn 15.579337291792191 1.208510855194895 20.259859126178405
Sn 21.03577185872076 16.160029869800077 20.15050822251581
Sn 15.242037151953559 22.06756725596164 19.802605607056723
Sn 14.511971246279153 11.038900416209275 14.799030398044033
Sn 20.915641862712835 -0.6180701805754588 18.128087744556147
Sn 13.75260534032241 23.25862400154979 22.023311171397204
