37
Energy = -130.23384737 eV
Sn 7.640619363364353 13.189554871514735 7.888176737737203
Sn 5.974480438137995 10.492541592449482 11.30116073549781
Sn 6.4059013819002555 10.50940028751704 8.343747661522741
Sn 8.424864027677119 15.734426408583966 9.48653548368551
Sn 5.429470299333489 13.260566617045093 12.529661211974231
Sn 10.027466151647035 12.970850293127581 6.0378584363586185
Sn 7.076868245697167 8.3318125932541 13.146702546681814
Sn 7.774576319216559 13.171296953165157 14.53504253069113
Sn 10.557135551813504 8.678644805312135 6.8289795282843775
Sn 10.800270892278052 14.860831200424672 11.189380096794643
Sn 10.860326771279354 14.91837112512362 8.039594227948468
Sn 9.073043975103495 10.155041462797147 11.612433986093999
Sn 8.039970004824195 13.027559551825552 11.15602851889547
Sn 8.40577909713451 8.337290384887604 9.043324438709433
Sn 8.49073726188077 10.224682560470322 15.032983912946904
Sn 9.750150892165411 11.13285490607336 8.595804504885464
Sn 12.84799932213729 9.344688308275352 8.668283531653959
Sn 12.320473807769547 11.028700495788744 5.852209546792616
Sn 12.036512135382646 12.318622989980597 10.31591626758136
Sn 10.401663459469939 12.140316936682598 13.36473127441241
Sn 14.121570854429688 12.164537421219965 8.098323704626102
Sn 13.597392260554008 14.932236741212186 9.18155167952109
Sn 9.858561888429273 7.216114832588487 11.868478545376426
Sn 11.706511819411928 7.803230149318491 14.2419364412948
Sn 12.600273158999928 9.065966036226971 11.613314989766256
Sn 11.280939736623724 6.71508914098392 9.166888833672848
Sn 13.616388780619808 14.854082018658211 12.188440640162922
Sn 11.322294240642451 10.194456409625428 16.063254769597783
Sn 13.041764121134015 12.48602460061427 14.815872866418097
Sn 14.459100784782926 6.905321331084438 13.321071789458564
Sn 14.32810054066446 9.710586416325954 14.5833952296829
Sn 14.362170544691134 11.799004124937184 12.123978242893278
Sn 15.747305771052355 8.96412103580409 8.45517379262661
Sn 16.49594673157352 11.568421487610596 9.937825517317762
Sn 16.112622932684605 9.032246504517747 11.642664924592323
Sn 14.396865139140221 6.785464491504546 10.238014325183968
Sn 5.571464479813172 10.932626096929008 14.448841712119721
