37
Energy = -130.50544665 eV
Sn 10.7159393087538 13.079267984431084 5.732787131478843
Sn 13.555761202847991 12.235819753929741 5.9911291180803925
Sn 11.445730098552508 10.069177598347279 5.089558164317096
Sn 8.851187952067981 10.831154494020454 6.657840828427631
Sn 13.70549833664642 9.328549389227966 7.0886355175740166
Sn 10.620019049898582 8.347178594904205 7.7107083500200515
Sn 14.5992970707363 12.075454659204372 8.804415558200866
Sn 9.93321013856898 14.369942070936482 8.454969868704866
Sn 7.66643599048757 12.645790853869075 9.464161641864425
Sn 12.753634418254872 14.896263405956162 9.349008759756611
Sn 7.888971163773271 9.571733010256596 9.314784601049304
Sn 11.463441843565441 11.430684544378014 8.382859708643403
Sn 12.914732688939822 7.575250721126372 9.782222465869681
Sn 15.498474698687675 9.274615989691103 9.656214243429703
Sn 10.27390808333043 16.537780556257722 10.640555278054364
Sn 16.0371683928047 10.648145875186161 12.438758316881614
Sn 6.755315515704023 12.045373150598463 12.267035781577155
Sn 9.66126587136436 10.914581761150982 11.477667629874615
Sn 13.06162747758545 10.189424012712207 11.404288780775975
Sn 8.211540106877031 14.823043400490963 12.072387822348809
Sn 11.040035172527304 13.674204881673141 11.662407403544373
Sn 9.597607589461076 7.689796659522237 10.945949085022265
Sn 7.430464153343239 8.977709986918972 12.777387812780399
Sn 14.478567104135987 8.593921393828607 13.838748512526795
Sn 12.971944377052791 16.22008252938832 12.173079948448034
Sn 14.099579947018825 13.16267460338303 11.858259956353457
Sn 14.920491587887483 11.424092071397125 15.362975281690316
Sn 8.486418727963954 11.21995884562442 14.623757610324763
Sn 11.828816473804519 10.957286373973961 14.287224170227985
Sn 12.116317904385728 7.141517620342173 12.679843872904359
Sn 9.852256978211141 8.214475471602617 14.524727904919935
Sn 10.463681002948748 15.74570985663313 13.948374589610847
Sn 13.039210459654129 13.94521143470184 14.745612922795889
Sn 13.279130636760657 9.126130662871791 16.61040343298559
Sn 12.574594725885298 12.031467842043893 17.472276211325752
Sn 10.209894701582536 13.29248311677305 16.032518011430085
Sn 10.325166250148262 10.021382024865684 17.003800908399967
