33
Energy = -114.75448123 eV
Sn 16.444183169462963 13.663376098118908 16.973083140477755
Sn 18.553838432222367 14.245824364272286 15.018336731711116
Sn 14.21234448711207 15.762525900198643 16.465439959403458
Sn 17.354862244548546 16.62365269185787 13.298476424612273
Sn 15.518532451546921 14.147729695740928 14.121277413790597
Sn 16.17475985877602 9.045866074844717 15.125322292474682
Sn 15.095225260669874 10.918260953035704 17.20156481060269
Sn 14.11729112215462 8.7758497806373 10.306375213001493
Sn 16.63398015050205 9.258330830297906 11.982604236628877
Sn 17.45690759578909 11.65796618920268 14.037834528179598
Sn 15.35973268064166 17.211033818520566 10.8226493455871
Sn 11.69384293999881 14.331981450496937 16.81093103159574
Sn 16.62382711287945 14.449814467480046 11.296514361378998
Sn 13.972474687981693 11.344243892193388 14.42503385016114
Sn 13.872460574105538 8.242692075708751 13.329857237131023
Sn 15.051283809291915 11.798572856811951 11.58912340798177
Sn 12.039352674947745 11.332728018663705 16.869024520441492
Sn 13.345259415752045 15.022833201394391 11.441701986346555
Sn 14.310539278080347 17.213273057652664 13.75484937647863
Sn 11.370072414348238 9.588217736512886 14.480936750078278
Sn 12.13755991181764 10.675421520170135 11.475255815426092
Sn 11.066211488631632 15.871347722361746 9.706467509227792
Sn 11.86169909229107 14.281906686328771 13.89487604228171
Sn 9.853419187861654 16.310685949125304 15.391200300893704
Sn 13.557788029560307 20.022323586702964 12.830580919983914
Sn 10.947853525666181 8.185435188608944 9.927705214097607
Sn 11.459620889890637 18.485052007115648 14.109802641793168
Sn 12.333553909215707 18.239078425287655 10.858283298819332
Sn 9.48766925896037 10.873041780756731 9.973253139106504
Sn 10.051146348719783 16.415831687275364 12.377459741897214
Sn 10.004946290300026 12.01369371521238 13.125016335734744
Sn 7.438207428849694 10.972069330193598 12.069646787669878
Sn 9.305273688945459 8.718101247643311 12.289458248110009
