39
Energy = -137.1325005 eV
Sn 8.289662206804554 9.527600943327101 5.830420943330336
Sn 15.815758394707345 12.96296015201054 11.615968326845543
Sn 8.254378805252255 12.655731154548516 6.859117472827357
Sn 10.26167037115611 7.241701478635944 10.553161509679313
Sn 10.512034041617838 16.109771943041288 11.535979329617328
Sn 7.300551549191174 10.24633022648439 8.72104284724861
Sn 11.152029567834534 14.220184565752287 6.2325269842325515
Sn 10.485397743336117 11.417734291530182 5.017140149703746
Sn 14.114955828525337 5.730729616308791 12.875381296256734
Sn 12.234879281111864 14.527847775280417 14.791459911349877
Sn 7.641367192300969 15.658617514927997 12.627357054683053
Sn 13.576536904646954 15.049138459697387 12.024815066725637
Sn 12.300797555300655 8.179204536386818 13.327479818371703
Sn 13.09584507334869 11.44940942505844 15.538650384060677
Sn 11.199089989948778 9.043698126367705 7.122975887058338
Sn 10.000404465780019 12.37920838334079 15.33974600478097
Sn 14.931733586941489 8.364163139246099 11.57272047654771
Sn 14.114641550380224 8.460606948642257 8.494740382575824
Sn 15.146680007288262 13.762836700035441 14.57437286834078
Sn 7.130217403218717 13.361626198865913 10.724597081022754
Sn 10.446778339115369 9.357972973918077 15.360975933176045
Sn 9.682840367625253 14.503776368176261 9.024838096404785
Sn 7.710898552124557 10.028465377460922 13.599379987300894
Sn 13.24866343352989 11.857171077143379 6.492020262798502
Sn 14.441066082290305 11.325419736414235 9.41407274982311
Sn 7.114545751684209 7.923683066971347 11.074081252658042
Sn 9.826543929695173 13.438205506717392 12.497112953360435
Sn 8.584867163636432 7.514219743887142 8.15513868696789
Sn 5.653728281273701 10.690221211385285 11.248351130021895
Sn 15.373358738640459 10.744132607300648 13.612294151106267
Sn 12.095632779093322 9.627538405731961 10.645973692005468
Sn 12.896077580730232 13.942974285355973 8.80461750194217
Sn 11.147495702192305 5.188970300605623 12.569858127476447
Sn 12.798850035239823 12.16070965697289 12.537892863977493
Sn 10.753131428502517 11.695833739726748 8.46964831666437
Sn 7.189856939877791 13.175467721124035 14.13230361986515
Sn 13.037874024583804 6.057263455647293 10.049103776086161
Sn 9.024388989064475 10.857116359768646 11.085609009062853
Sn 9.063814318489722 7.210800782284832 13.496118050124915
