30
Energy = -104.64064751 eV
Sn 12.278320282971999 7.9004196214984805 9.876228068067023
Sn 11.661538436705873 9.992785487730714 7.824861988694493
Sn 14.966439113270507 9.218468718709403 8.750971496033698
Sn 13.152854068150749 12.575545317792999 8.416095239858478
Sn 8.73771524850773 10.662997205800204 8.821017571075368
Sn 11.809465225101697 15.147714159447206 8.943467280837226
Sn 11.077789743876405 10.749303149960475 10.74244224874518
Sn 14.950781762660863 14.759130774221374 9.9716015655577
Sn 14.97958298099965 7.748212632350433 11.319733974533388
Sn 16.149417370285995 12.16419292493676 8.792412365746015
Sn 9.541273460422603 13.352308349168984 9.884476393053887
Sn 17.14249792320549 12.899109363287796 11.620264915075769
Sn 8.285013847833065 9.586824831997847 11.615011337471254
Sn 14.673681312151132 10.963973848812381 11.300056924418856
Sn 12.39676019491453 13.338255038917067 11.510455311613285
Sn 11.159178518561694 16.22195836901757 11.77201229797837
Sn 10.989485075006346 8.42356140896041 12.549265182337946
Sn 14.787258278422351 14.275188960276614 13.073263532179045
Sn 8.304967149025018 14.928948914704238 12.166963203872303
Sn 13.737105268860514 9.265293825042317 13.625156874414392
Sn 13.119755176787857 16.461516331046262 14.240198244246633
Sn 8.782334818443479 12.034505724931174 13.238407480456672
Sn 10.734925902792714 14.551273800285134 14.28207762324392
Sn 16.082996855310515 11.825551434416596 14.248817964786031
Sn 7.815347535000615 14.234902569319779 15.27778479005926
Sn 13.189356953279805 13.896309242838367 16.140531566418463
Sn 11.2619882251164 11.53347805376673 14.943545103681103
Sn 10.263603584086566 13.571678603239903 17.181039834508763
Sn 13.977892150301178 10.872134996110665 16.121698177503244
Sn 8.50881201650689 11.362594819972273 16.268279922092546
