39
Energy = -138.1563876 eV
Sn 12.837365104857577 7.345831693282887 5.785317618834443
Sn 8.617416052937614 8.732290291341666 3.8581726410719552
Sn 9.753736767092237 10.72900169035321 5.882501784454674
Sn 6.725723778686281 11.019508222825152 4.304773816146299
Sn 10.947595865475792 4.994533372575188 6.447609615061511
Sn 11.183598798749761 13.811483520973784 6.882962258906796
Sn 12.44271723829498 10.167335132590402 7.54581000080364
Sn 8.561850917151853 7.614349585171885 6.6371810259736
Sn 5.843932434350599 8.167353294508555 5.260571454172715
Sn 7.347769743183365 12.482578037610597 6.932986151804535
Sn 5.826267497199894 11.430046261531984 9.440785917091596
Sn 5.831068354350583 8.332018675676409 8.407835426611365
Sn 8.573242960304459 5.392206074076254 8.678926718227
Sn 14.792924668740227 7.94992803353064 8.173175998581396
Sn 8.351051238880835 10.010720848437206 8.520594872087017
Sn 11.724645729240224 15.467826776466769 9.641442340605472
Sn 4.6876122262582784 10.700820526594956 6.59476626566383
Sn 13.96265794931149 5.026715732823531 7.615337947168892
Sn 11.561315910035214 7.292449516772421 8.531845092414185
Sn 13.38386321111151 12.955363494110506 8.982664506974434
Sn 10.400863003671557 9.511576272704124 10.555970223417233
Sn 4.814030391745674 7.044148453577999 11.44422506768168
Sn 10.344463231291062 12.51557914539939 9.447125348337853
Sn 11.4806260650344 4.3035555580779175 9.442288389146624
Sn 7.864666798266978 11.68697848191106 11.838752027401684
Sn 4.814859231326417 9.941994186928161 12.50461116262953
Sn 13.474038918870345 9.643427014056584 10.485597483767949
Sn 8.784041630548229 14.971514436961346 8.4314453309116
Sn 13.676578423249177 6.277320110155644 10.592326516245654
Sn 7.4185403506013525 8.565706682743194 11.811823784240824
Sn 9.7506289425661 6.507203686938681 11.229833096432522
Sn 7.181836603918404 5.584868493669476 12.73227420930926
Sn 9.343501164352967 14.538942369216516 11.465513190828982
Sn 12.118611285554673 13.19937285743035 11.800160086866915
Sn 10.185358122411206 10.541290847816134 13.479239363634674
Sn 5.598192927187753 7.6433650478138455 14.52621357259937
Sn 7.133733656160478 10.313425146650529 14.630832815101172
Sn 11.820182269828587 7.908531967199178 12.884897791119643
Sn 8.795239272416788 7.635187194709485 14.52795782288619
