30
Energy = -104.73571073 eV
Sn 15.009765134707175 10.76072047845866 7.995126211675068
Sn 12.376168465158772 9.213452841059663 7.985473847434452
Sn 11.525071212005779 14.848687081643133 8.209752548607755
Sn 10.406964600432485 10.266983015172865 10.363952924130176
Sn 14.957269429563988 7.930382995800842 9.177505322139874
Sn 12.469900414513587 12.15492934734766 8.847710927331406
Sn 9.526365500593451 13.982960388678467 10.369675059021581
Sn 14.039592796862319 15.47855067453952 9.96602546227363
Sn 14.964224003280592 12.652524338357578 10.613004541748321
Sn 11.278232277864749 16.684724014254112 10.661678734041043
Sn 13.670160091961002 16.96089279070348 12.61654135506369
Sn 12.693804109644105 8.308738284751396 11.089778262795289
Sn 9.746327639825568 8.00424291609104 12.497492653413673
Sn 8.570024332827822 16.509986277813134 11.926649363164714
Sn 12.672343507785667 11.256331390823814 12.057779144576621
Sn 12.22948240504859 6.429776827981958 13.361740247144926
Sn 15.46990062055105 15.215267414997209 14.223371999665547
Sn 15.729095208979455 9.87573143100783 11.30538020837933
Sn 15.096112808169224 12.315578363120018 13.839040072703316
Sn 9.473118812502447 10.96229683178892 13.440377053801836
Sn 8.405634932495964 15.096071266044884 14.564322334334378
Sn 10.843173288654391 14.08587671269054 13.000617470194426
Sn 12.369174595684928 11.438706432478918 15.101694013911874
Sn 16.5553372199873 9.722277156847035 14.162414128210584
Sn 10.911759148668397 8.691808862684246 15.257833102234008
Sn 10.787264383374604 17.35771825109831 14.021908721170732
Sn 12.763400794521823 14.924959045308668 15.113773255275797
Sn 13.81083754630566 8.800970858321543 14.108864853715108
Sn 9.66402016350096 12.735380361213757 15.908704949007483
Sn 10.478306211063481 15.826305005456026 16.704642889367832
