36
Energy = -125.83396634 eV
Sn 11.56215969381603 8.793847491714688 12.40429733395238
Sn 13.559576653667897 6.543636938783551 11.727196577078864
Sn 12.147126089955929 11.503983434799025 10.739073618110583
Sn 8.481217659661448 5.598062643016175 11.56631395607615
Sn 9.164610465473457 11.80004452772681 10.510952827820658
Sn 11.631730060247593 14.390007725589323 7.0542000091369985
Sn 14.318075613904044 9.357355882902594 7.110989800877298
Sn 10.03456500111475 16.576227110105673 11.638435031636366
Sn 7.919232639661969 14.216221310055921 12.041336741720285
Sn 13.113814156502908 12.00551106467778 7.970593442433859
Sn 15.331497452706712 10.754081516967808 11.93609121057513
Sn 11.648154039815607 9.791186171561156 5.735922268654041
Sn 8.962776527705737 8.510538434985234 10.667229966532364
Sn 13.720351593104535 8.923444251975875 9.939192819840878
Sn 6.969922415592897 11.708008967359568 8.38234993521731
Sn 7.462635168812834 10.167229292260206 14.129230774801957
Sn 6.361823049378493 10.136544623005385 11.263939825377648
Sn 9.78694811868729 11.261469022782046 7.41561088449503
Sn 9.576191443089305 14.559808978231375 9.452356429638904
Sn 6.1796745793887204 7.032391680037741 10.07750524316357
Sn 9.966093439522748 11.737128700047736 13.418728048114675
Sn 16.066159865259706 11.018928283335645 9.022644301564714
Sn 6.310060099943336 7.478091849281917 13.041022936833592
Sn 7.249570218330612 7.779511495818489 15.82549751174599
Sn 11.08023680428143 6.162219085994127 10.025754100201343
Sn 14.489966811729525 8.587224664907398 13.796993751951291
Sn 7.497200159401743 8.724088940272496 7.798766408715804
Sn 12.419608976665808 15.75940726791458 9.719129205887924
Sn 8.52138737444211 13.909010670158093 6.7455720647033575
Sn 12.310314824932558 14.159779640531548 12.283441389250596
Sn 9.442953215655972 7.2646612940907955 13.963141532290184
Sn 10.408181173353233 8.090792807725192 7.819339607300171
Sn 14.817384639921046 13.59555253534313 10.290415208866985
Sn 12.981825041191573 11.162994405218676 14.17758254555404
Sn 14.987674434285442 13.386491024266956 13.406249560941921
Sn 10.022403025592135 14.654111893502533 14.117599795168942
