36
Energy = -125.36170226 eV
Sn 17.377025613934407 12.183624656544865 14.429820999850834
Sn 17.09266519669301 8.388145731468803 12.451863861271375
Sn 16.03555552656045 14.21576410787596 16.549788366633607
Sn 15.762750199338118 11.234659891837742 16.871680531784662
Sn 17.846028022181347 15.17341282916609 14.26421485910019
Sn 14.528645408203667 9.889183731885224 12.154278100144303
Sn 10.942935226129032 11.48843603075224 17.758471682671384
Sn 13.638222069771782 12.963223960013604 18.527533513498906
Sn 13.941691477220955 15.958194789299498 17.949538484556403
Sn 17.617591987888485 11.050880193753622 11.473299984112135
Sn 17.919449977298456 14.030824255842184 11.368361973077327
Sn 16.41424986457409 8.904026439632547 9.527207919295046
Sn 11.228464013744833 14.335823327655529 16.924748868878922
Sn 15.071007154122249 16.611420724706285 14.989005568724997
Sn 11.068058792993698 10.443742776258832 13.337198468500375
Sn 13.104342484257376 11.59990790316421 15.650480336643136
Sn 12.038432568351897 16.99433754139266 15.6301514877929
Sn 9.396881108616782 12.124694277761058 15.248558415575314
Sn 13.218889712855589 14.319809635534378 14.393838680606192
Sn 15.106666818053434 12.923234481110155 12.484487925267368
Sn 11.365396299482981 12.98194686245942 11.943986736747576
Sn 15.047599581834882 11.542948064315668 9.4851977301375
Sn 13.268029668286813 8.895727828993769 9.499975823505006
Sn 8.76129383734857 15.340927451047866 15.401203726250777
Sn 9.695957995181548 17.570203251505003 13.66943264882918
Sn 6.908512168983374 13.376554928249892 14.132652500198963
Sn 10.483537800645076 9.746435070251485 10.307275606604964
Sn 11.691067717094839 13.759480633141434 9.1426912838176
Sn 11.802440237504968 15.969129603635672 12.367688577744708
Sn 8.459327726355644 11.844359373961582 11.87416095808783
Sn 15.337306265967724 14.442490157976216 9.895883705883403
Sn 12.280709459182328 11.190876751890897 7.842812700737573
Sn 9.566430571925247 9.95591908999711 7.494683892028462
Sn 8.696957186610247 14.961868399447415 12.183043457724123
Sn 13.039727662475604 16.304353789941896 9.636795563451495
Sn 9.068551572029744 12.427097191444467 9.025251416791868
