31
Energy = -88.2850519 eV
Sn 13.118907172086873 15.124770199032803 9.315761199558795
Sn 14.469331537508328 13.968107539390166 11.643471393225893
Sn 11.645623274234632 12.023124805747102 18.123620678681636
Sn 9.265402488831667 10.858233669860633 18.029983867363615
Sn 16.52294695346969 19.699506943763495 11.585235533904774
Sn 14.534217512991752 21.184620870009443 14.904823759392109
Sn 20.278975771779276 16.188519131949214 19.1509244927345
Sn 17.659967399075814 15.878660224898814 13.99916890242429
Sn 9.411044710500892 9.631223551421577 10.81496834947907
Sn 13.538214569500193 11.340095897371041 11.18659982397181
Sn 12.057305247712797 21.272577337348054 14.124398933876531
Sn 15.225028791355339 17.65428696579508 13.388664600365027
Sn 18.274355341311974 17.76048387980493 18.557683014906388
Sn 13.140835066816798 15.959577587662142 16.597180097862452
Sn 19.55723512789555 17.21036221016175 16.11489939381628
Sn 16.401955724034686 10.095933140037433 16.561534291648695
Sn 12.540322096537066 10.803221340523065 20.404708017494762
Sn 21.97113481206486 16.00287432286002 17.075781517642348
Sn 16.468976964528824 7.723740366659079 15.608954525475525
Sn 15.540021192759289 16.499076498411302 18.00676850388945
Sn 15.662088865569292 18.15206961929885 7.798539910603674
Sn 16.77340463350265 9.582821726631998 19.241999094412968
Sn 17.674641902070512 17.89660915460985 9.828533028761898
Sn 17.169655211937823 14.573189268992039 16.729520882026108
Sn 9.863829576917734 12.748219690415867 12.1065481970584
Sn 15.345349555593463 15.32950634218128 7.640928156593593
Sn 11.463922422117736 14.632306777686429 18.61411587842971
Sn 8.151606687199468 11.900718178695776 10.045993631185787
Sn 15.110378566967842 11.896542045313694 19.811873318777266
Sn 12.486390224518464 19.047555658233854 12.672781986318576
Sn 11.570474916270703 11.035628872791246 13.188092422027673
