35
Energy = -121.46077481 eV
Sn 8.920975060094719 15.146362117436725 16.2344280780883
Sn 17.345062767590534 16.866454569601085 14.45648178066766
Sn 19.12697601501529 13.795998620913927 18.247129599169266
Sn 16.234949019298615 13.767706045799514 11.720971281604362
Sn 20.99781755152893 16.233628159769488 11.013321668390128
Sn 13.667387875361287 17.810461840866598 11.093256678870624
Sn 17.080812234879296 16.016061413569872 17.471260382157546
Sn 14.434227282040789 11.253065522550857 16.746161306411665
Sn 19.063415216819333 14.110317361187565 9.997823768474946
Sn 11.62345336018148 16.220296632314007 15.440354134676156
Sn 16.547632250631104 16.774818236507667 10.75793945897094
Sn 9.376104301233479 12.133511232420712 16.924951904102393
Sn 18.287068750112596 12.928852855486982 15.44935393130995
Sn 11.720336625303714 13.112461379535857 15.486722109848612
Sn 11.840670215748649 14.90889677591699 20.38056144075783
Sn 14.775008525616657 16.961618234909388 8.446264963210046
Sn 16.030445613799984 13.3263074954656 18.719466585864083
Sn 14.027503246758657 11.972804459466358 13.979020414393029
Sn 13.262009156062605 14.783901008607335 17.59709505120619
Sn 19.568525740409 14.986280901377782 13.193386748236339
Sn 17.918519282716932 19.80601433357603 13.93770761045193
Sn 19.864391697252803 15.673942094672771 16.135743212157593
Sn 16.324617870097075 14.39270916102282 8.845223029525501
Sn 13.395933791814759 17.86138408679022 17.776487791127337
Sn 18.67841035287932 12.233102585982484 12.341740079347218
Sn 18.883323370407837 18.10257508782977 11.823897685978366
Sn 14.85642735421032 16.12131384024506 19.77486442918315
Sn 9.05410592389893 14.320184322872302 19.13743235020335
Sn 10.51642796007234 16.879309443277705 18.347329447967144
Sn 14.598362756786141 15.814396073985854 13.267833713978924
Sn 14.282321729764963 10.976566890495231 19.589921055202957
Sn 15.555002162947924 13.994115794066424 15.581781312558887
Sn 11.722248499089192 12.388242858439014 18.76961672962587
Sn 15.131880153489655 18.94056537344122 13.43557365649151
Sn 12.737963413188432 19.004529598355603 15.129797524735602
