34
Energy = -119.01335377 eV
Sn 14.000382252120131 8.720484484383887 8.32379086552047
Sn 15.630724878509671 10.184934996603149 10.520035992822248
Sn 14.060800775022484 11.638870479461962 12.669824831323632
Sn 12.06082150352971 9.858853064297657 6.299170167434857
Sn 12.7945250914165 14.272197635714644 14.32049377804222
Sn 6.538699078899116 11.29167784266618 13.713141186797023
Sn 9.991628397682272 10.769595484851896 8.275000320350173
Sn 8.455318028451202 13.224447108257237 7.65945217284778
Sn 15.308227051923675 10.736350448896198 15.610499817689687
Sn 13.974679762262726 13.199439883230346 17.014199588397723
Sn 13.452961451454714 14.378153825891197 8.249416873370409
Sn 10.94138252508221 10.336917794593734 11.625577204647112
Sn 8.770397020981733 8.506634819823248 9.787563878734465
Sn 7.39301456407929 11.165974294474378 10.832680947767466
Sn 8.382750869743166 8.998507385265013 12.879880736685992
Sn 12.489752673502577 14.430325969893639 11.231027753593711
Sn 12.529764557940798 9.665744259083263 14.282107231866174
Sn 10.484943276891999 15.071522343055053 8.895789878617228
Sn 13.875196505766871 12.279398393109194 6.005797936720143
Sn 11.121879049892323 13.123401979157775 6.357552179964013
Sn 10.381475642064318 15.945332899171307 13.369627890754193
Sn 12.848581464323967 11.493358995036468 9.022654511669396
Sn 14.803120429925068 7.022795764131137 10.730349781731686
Sn 12.555584132028144 10.410703461841711 17.165238671545353
Sn 15.712378248700215 13.490405031868868 14.37642398438924
Sn 11.785361725013008 7.807599771498447 10.256627230542728
Sn 9.007974611475055 15.01049761021504 15.73876994198161
Sn 11.048555060422945 12.85497295112364 16.237062938219918
Sn 9.507484433397236 11.716636323947558 14.030367975886914
Sn 11.300600626297868 17.209562263900093 10.914091760405576
Sn 7.655794662470861 14.137228129065349 13.079342847359092
Sn 9.762724089032567 13.119676266794292 11.199399688252697
Sn 15.34972749283936 8.62178724451935 13.214099297645099
Sn 12.723796642029663 6.907047197256645 13.029624420788853
