31
Energy = -108.2531552 eV
Sn 17.465552066634487 16.53132943503289 13.440310956850924
Sn 18.68431789929262 11.780612610709102 12.474920521542863
Sn 10.804002303877688 17.718848442599384 10.854697537000488
Sn 13.004448017920389 15.39561249248114 17.19312265464008
Sn 13.129350106994332 15.692473225982793 10.101550189057024
Sn 13.889156782017725 10.611579733621504 10.68411924664963
Sn 8.93047413936272 12.234720942254446 11.790050410702634
Sn 14.574922516905756 12.695345782465933 18.31891070744182
Sn 14.950531501518153 16.72135732626769 15.111905835981089
Sn 13.53890373467344 10.15481078793755 13.660195101585751
Sn 10.51399783772014 11.199959574129894 14.288051492186588
Sn 15.0654799871073 12.243005862016176 15.267973262860384
Sn 12.80980570949389 14.00011666260177 14.279397071862693
Sn 8.498527905401692 13.676077714189335 14.277863045688088
Sn 13.286898955450912 18.677793335904617 9.462698372470506
Sn 15.957566629161047 15.421599153504875 18.11985158390692
Sn 19.03597681456138 11.799500834967246 15.699189688716974
Sn 15.858265774469276 12.29694992203396 12.009339643727184
Sn 16.595704306339364 10.441964495838896 17.175626789382676
Sn 15.021379793260074 15.15431737971728 12.35986859298254
Sn 16.839366096065632 9.973213369742009 14.132222301205939
Sn 17.744147647047104 13.050817074124593 18.43172927165485
Sn 13.215838330556922 17.890598068253432 12.582750072244071
Sn 10.661718386162818 13.314631565516311 16.525969854021543
Sn 8.426784885071564 15.362500232251952 16.574139932864956
Sn 15.700766229190211 17.796324382808344 10.807592277502815
Sn 10.665354060095982 16.164443412201244 14.77359688203411
Sn 10.316669140079716 15.026651380864582 11.995363939412023
Sn 19.54170094111962 14.282780714662787 13.863583123190594
Sn 17.080983728313033 14.309009616057354 15.588186135368973
Sn 11.95818142454565 12.43209160748459 11.850228282055296
