30
Energy = -105.1638816 eV
Sn 9.837435421555021 8.933176547744448 8.638495788248052
Sn 6.816618771451295 9.375148244053312 8.229186585358118
Sn 10.857193227014923 14.054989952666972 9.244256899733298
Sn 11.002165841176744 16.580450415301264 11.488250523145348
Sn 8.761952705813489 11.757585279096062 8.277056535602448
Sn 13.54209411977077 12.541541429102947 9.331236696242152
Sn 7.758553426745192 7.466883721950388 10.353762159302486
Sn 14.18617238371839 9.79305672936121 11.167473736431463
Sn 15.832663642854998 14.606264093501908 10.953821920052393
Sn 16.262012032374983 11.720320301901959 12.290281494927113
Sn 13.803869266032274 16.999445349429923 10.498129752604745
Sn 7.789249616796717 10.44108997232116 10.882485570899396
Sn 11.02716618670203 11.20507341367932 10.48667719209058
Sn 15.633522603402222 9.131751155110106 14.370568882154146
Sn 12.865708944684837 14.250919790216741 11.616678713139343
Sn 10.21858340058517 8.592268112842891 11.836255402692414
Sn 9.700065257318903 11.820429708293803 13.101848996449307
Sn 13.098590090304116 18.634673945348954 13.029362836508527
Sn 14.875116691756206 14.294457699722873 13.949214805534204
Sn 11.760732540956718 14.474875712826055 14.415822932207591
Sn 10.839275349699319 17.263382730301615 14.512980622062145
Sn 18.161657130961636 10.674418065795166 14.21198720580981
Sn 15.741682380025102 17.131476687563747 13.009515868841717
Sn 13.792741427050725 16.71760938024777 15.43840210978578
Sn 10.582442486445373 9.50927258523285 14.969688989763522
Sn 12.922730699308312 11.244467771067697 13.55737549163027
Sn 11.384812691661342 12.117817651432802 16.296067434865407
Sn 15.9864312886818 12.060141610630586 15.639757761225344
Sn 13.730954099748995 10.232860532022636 16.463152808908845
Sn 12.946780129417652 8.093125265247174 13.459178137798418
