36
Energy = -124.7689174 eV
Sn 15.767894505435631 23.063203092212337 19.866884714855416
Sn 18.002604308931584 13.17537198996739 19.350231636974637
Sn 22.561797371487245 0.2691962600897678 17.81039318791159
Sn 16.45009770337837 15.407500006626213 20.631590128127254
Sn -1.7437690183062622 2.3254205091871434 19.91216883047842
Sn 13.74294080485519 1.6583503694281445 18.753721346078805
Sn -0.8582988460431153 11.548945277048327 20.066751044405922
Sn 16.33499504572673 21.773910221729487 15.045346196009262
Sn 14.97441278132221 2.0054125388604507 21.498161897667465
Sn 20.764198997249906 9.213644690697082 20.218736635727804
Sn 21.6406723169094 -0.6687498994346566 20.503824085679533
Sn 21.246991829558976 14.235357391045246 19.82251190829321
Sn 18.655268888653225 21.61388090496594 20.1646870196336
Sn -0.9531033221426958 12.724803735631534 17.271145389971792
Sn 19.832217897370796 11.754181419320187 21.423046373040293
Sn 16.769065687024987 18.85880641079907 15.949431822630538
Sn 16.63471572558205 19.43835707375765 18.93137153413166
Sn 19.6522418081907 14.486607436692305 17.018706977674398
Sn 19.342692796185347 1.2548149706462959 21.010675995851336
Sn 17.098093849796506 -0.08939827716759981 22.44066073653121
Sn 14.592806189731563 22.289152903319582 17.351413255600516
Sn 18.519874150999875 17.72263552278817 20.46626711570355
Sn 19.628758558955596 0.6464782037810961 18.114083951192992
Sn 21.222611067249606 20.847960010730034 17.809106988333664
Sn 19.16802023910308 14.817732322244474 21.83311474139825
Sn 21.005606937023934 19.773085638570528 20.643471555034367
Sn 12.999954643411364 -0.27255735051787633 21.21277502204912
Sn 13.903107894393965 20.534184031564003 19.787864468894313
Sn 17.332441478166643 16.350920773132962 17.849847584970192
Sn 20.3409696632566 17.489465375874776 18.09174478643114
Sn 18.362912132676893 21.331551241478003 17.07888076801789
Sn 22.708598939231322 15.790682026432103 17.522971695209566
Sn 19.74456244098576 18.75445306136399 15.516115365449886
Sn 20.234545790365598 11.14020247652596 18.13045292903412
Sn 11.891073205904659 22.88063872637956 18.445424710922907
Sn 21.081472441681523 16.100711111029657 14.976129436636734
