38
Energy = -133.81534988 eV
Sn 4.2329837181267225 9.599218462644451 11.681219070574093
Sn 12.180706962827017 11.298344420021479 6.736655122792539
Sn 10.976741469107699 5.051798693957605 8.411756671025755
Sn 3.987759754996248 12.470221851550496 10.197990849218378
Sn 10.623508953238167 7.1644980313264535 14.047220945936788
Sn 11.526363244528042 8.73104102024114 4.777920288375859
Sn 13.52198411242403 9.309735624704302 13.450006264221887
Sn 10.219143795527588 6.462496686272853 11.057380580298334
Sn 7.468245000565577 9.466194511147513 7.190301653619201
Sn 8.857481874130244 14.255279626706047 9.029228278681327
Sn 4.809083781252025 9.9391191398617 8.632520263650925
Sn 7.906815427210049 12.87275340187921 13.163442482023068
Sn 9.885165148917984 5.951613701937132 5.330061449897009
Sn 12.43507908684861 9.342431183812957 10.6334308644044
Sn 7.99868113843597 5.663402440008873 12.86257243768988
Sn 9.662062861784324 11.411385369623646 8.451132451328297
Sn 12.859376098064145 6.271364538508641 6.166371869697942
Sn 6.4392674306898385 12.591643537569528 8.080317882917072
Sn 12.922517590640085 12.356414793498034 12.796131578302253
Sn 9.373356134153457 9.415811598247348 10.69867665161789
Sn 8.90531796731201 8.123434510246607 3.3157127762612193
Sn 12.921516234707697 12.341267765185478 9.543519836061071
Sn 9.200736461113733 10.850563663659665 4.978124723089418
Sn 5.919281027802707 10.661741902555349 13.897442148135726
Sn 14.490990521755322 9.814445114326718 8.349739858168
Sn 8.242248465334336 6.693238464155885 8.102543583640758
Sn 10.328609137574093 12.792647574314113 11.259547177888944
Sn 10.299478234813744 10.537941484420442 13.55163385479467
Sn 13.112941405089286 6.585758824727248 12.049613695766856
Sn 6.812987299435944 7.682383900497674 10.798235339528548
Sn 7.9462991408630055 8.560007358218726 13.579013752712537
Sn 15.118626980949438 10.903951195559381 11.221843896654343
Sn 6.462811630247725 9.598172098163431 4.397045329447439
Sn 6.344469692011623 14.32184969505649 10.815022406019171
Sn 6.771709402725381 11.183374135242097 10.923254859410958
Sn 10.930611599136215 8.314417787319144 7.743566800004269
Sn 13.637076858691236 6.9174490408538345 9.007075191124608
Sn 6.901347196780901 6.72596969179193 5.306109954831535
