34
Energy = -118.76742253 eV
Sn 13.976231592693788 17.005718611265713 10.97708227471256
Sn 17.402878153156955 15.698305310022963 18.276585787977712
Sn 13.098943177623937 15.785883445403782 13.821864854266654
Sn 13.252122201233648 18.675196161134124 15.179300780775293
Sn 15.783120080988931 13.194805644211694 17.015797983900686
Sn 10.87485638204244 16.95869753234953 15.432370984242349
Sn 18.82336613426261 13.26238634536758 16.602709912070598
Sn 17.70626413629152 14.58223037308232 14.057659523783022
Sn 19.585185166228896 18.877939753549217 11.779081078220436
Sn 12.75676168730632 15.191533509135622 17.48124241617214
Sn 13.595420024630737 12.776205109581035 19.067540469459168
Sn 13.799339312684706 10.679745630936608 12.92565327036707
Sn 16.61934387850632 18.430116808979854 11.735254259567482
Sn 14.22362889064969 10.560950594983684 15.97305272801051
Sn 15.902070875645503 17.942899668470346 20.157097286624897
Sn 18.744705848987223 11.590008827328283 13.928929480577633
Sn 15.970551028269186 16.996840945779777 14.300883927194453
Sn 19.27700233615222 17.52334353209614 14.37522622095913
Sn 13.879103315611083 16.819912142946574 22.27718238592228
Sn 14.56902614264449 13.201546688523907 14.332297404600453
Sn 16.410485549829463 9.545247428110994 13.891071748066965
Sn 11.638819681746044 18.123016185891775 12.334631699830902
Sn 19.973420784159465 15.665299568730884 12.199749559460825
Sn 16.387882960636798 12.241834183211266 12.101606969818661
Sn 15.255118245772508 14.931841259007038 20.390762435440045
Sn 18.605819645785644 16.78390092562869 9.804694428419628
Sn 12.801293188275679 17.961903682162955 19.747038659856084
Sn 14.768848208077948 17.328151714899285 17.416528057003372
Sn 17.653915904330148 18.255242594826388 16.74115970941304
Sn 14.100985686798463 19.92596068503718 12.567520828432777
Sn 17.319135866617184 10.572646850264952 16.616650742801628
Sn 10.40586508539656 16.733835305611397 18.631766228771596
Sn 16.454391663593874 15.275558219963813 11.22085981022639
Sn 11.984429858627493 14.973872307498938 20.60451758776032
