34
Energy = -118.49874238 eV
Sn 12.100970398986025 15.424991911648528 14.185449645671731
Sn 13.197989007515734 10.658272043183132 11.192564689666058
Sn 12.22501852122614 12.449931424059772 7.337123208701059
Sn 15.81994913774024 12.184841728769115 10.472177407383313
Sn 7.571630466203937 13.349916611981298 12.060151957980382
Sn 16.20458375362899 13.897506697631023 15.264387166256324
Sn 15.858788430031558 11.461812491418994 13.713001291725572
Sn 14.50138215992527 8.262418014674818 9.2584552583851
Sn 13.249327288727148 9.810579475540417 14.179315183118515
Sn 8.640897170550954 7.20482485851002 13.985566184618698
Sn 17.314943195971658 14.053519854214901 12.394453026286362
Sn 8.340098105082639 11.762798024694273 15.558650847057358
Sn 11.985797307647294 9.578443478435396 8.532562068213005
Sn 14.373204643033853 10.295936131417191 6.8686678252978215
Sn 6.773083904165588 10.61800487207841 10.676346323600102
Sn 14.485084549206173 14.663575340944186 12.592514689364279
Sn 9.240806759930924 8.421295382395003 9.025193534940275
Sn 13.574774378209103 14.408887345081707 9.64928076358352
Sn 15.307946242170086 13.027423926946541 7.669816009379506
Sn 10.566214190780524 12.889160280600946 13.509425748555188
Sn 10.52567932718449 7.210205259379082 11.553622463732802
Sn 13.59119225320571 7.630499903268887 12.092320008875388
Sn 7.346829953002568 7.6440643168106925 11.37185964349988
Sn 6.980567985383918 9.913353713372675 13.587831652085292
Sn 8.827645953845412 15.058544168564033 9.464213495132789
Sn 13.37281776439445 12.712647607531766 15.19912432193515
Sn 8.1543203857816 14.636016071048418 14.588042261146281
Sn 9.845890783944686 15.818557138696235 12.213522357461422
Sn 9.760219930612632 10.417689947739376 11.36973481604912
Sn 16.209447624098104 9.37182040942259 11.530414289038307
Sn 9.16133257207353 11.929801412508338 8.451401279917329
Sn 6.375244631990217 13.382243045932393 9.378323285563521
Sn 11.003036275636546 13.25322475828164 10.456402161338703
Sn 10.191668115248344 9.736961975428054 14.330251367841365
