37
Energy = -130.89500913 eV
Sn 12.426236119804868 10.069539415928181 9.081484640475733
Sn 11.395350121034715 11.604148553082064 14.029542616095046
Sn 13.116338996672313 14.143354954482787 13.877703150529022
Sn 10.879581819695357 7.835227357858299 17.173050970916776
Sn 11.15729646234208 15.962717532952569 8.875635353222894
Sn 8.272679735122464 12.443059173185977 9.455836151575761
Sn 12.09193703562656 9.053449633854541 12.501432554703864
Sn 9.631381727013544 8.957518396953025 14.620168873457
Sn 14.74887327315521 9.940896982122865 11.559389263210587
Sn 13.003170188120178 9.27965089735045 15.56372267505053
Sn 6.0373271366208465 10.339462079759414 9.566552430677776
Sn 10.480924280925612 13.324731576749798 7.557230077343679
Sn 13.30016312647718 11.777568848179484 6.614888520000129
Sn 11.243012519262042 6.383564480619944 11.026102345064999
Sn 11.297118593562429 9.49456522811053 6.056686519132887
Sn 14.373316379874288 8.83541339392186 6.496923941969434
Sn 14.770375786468634 7.838398680291107 9.299521113225701
Sn 8.253360305640431 6.410293786383441 11.985735063596936
Sn 12.736496444855895 16.11656301116909 11.399033389793967
Sn 8.101168567939576 15.41611487887332 8.805458504645284
Sn 7.494151294364875 14.714074502095027 11.724858884266979
Sn 6.50613245647577 8.172590367851441 7.3760365305113025
Sn 10.376470425418942 14.719328351406409 12.681360769221492
Sn 9.391087345741933 17.126120874828445 11.160597896271442
Sn 7.0405124207858405 9.289722736384347 12.424379295052875
Sn 10.64106356130816 10.787145817198137 16.870275750371075
Sn 15.43223589544036 10.95987897600773 8.62025513712563
Sn 13.779128147539264 14.266974521319307 8.65158753997762
Sn 8.889046520149613 11.897029447237502 12.319565397947406
Sn 8.72444516675033 6.50551096925778 8.85285347120528
Sn 5.938111095382553 7.264984643434801 10.230421252555098
Sn 8.955225595177238 9.696180837358158 7.969494568174301
Sn 11.435468731746013 12.929942181911501 10.45056617425499
Sn 14.30480091639874 12.979087385360355 11.332493428269244
Sn 12.014007085381095 7.1918478542130995 7.9825197754691715
Sn 11.628092431784887 6.679570435837503 14.447172652172304
Sn 9.542407328176598 9.002266274705967 10.767958360701343
