38
Energy = -133.58104868 eV
Sn 12.52846435253835 14.121848111676316 4.540017077420155
Sn 12.308019742429153 11.175709800822275 4.174182380070925
Sn 10.217215660815956 13.066547134424402 6.223480549785717
Sn 14.923471997732902 12.358629911855175 5.492860972144246
Sn 7.352383402069444 8.416398920334597 7.511071686304615
Sn 9.535630972788502 6.975031600979137 6.143184877010419
Sn 7.336988997589478 11.290785610262402 8.60352694948018
Sn 13.808792619611449 9.664633572401627 6.365147967461593
Sn 11.649978777317806 10.905972480812652 8.851322307799224
Sn 13.0051142351143 13.967237965028167 7.445736324638238
Sn 10.541812544184381 9.916465274671854 6.282916082280152
Sn 10.56954247594804 15.0214906971359 8.614023888290768
Sn 9.352303978733872 6.237373316383129 9.082682513018423
Sn 6.3302836046241024 6.498144595155206 9.785135037793127
Sn 14.618576896716752 11.719586482918347 8.706945387703591
Sn 4.7757868215549495 9.073732505323708 8.946234942304972
Sn 12.186088803193341 7.511085695380789 7.686701606614343
Sn 7.907022611797658 9.101975039752372 10.583586797863633
Sn 14.056453893942125 8.80360642837989 9.810149106442202
Sn 9.605589693055906 12.840206003480247 10.349435587105068
Sn 12.653771335287523 13.357808055543721 10.852422222776712
Sn 5.473083785464675 11.232867620181231 11.057318776125484
Sn 11.005567816060138 8.33723373598377 10.712206667502482
Sn 14.30732329907041 11.012208578067177 12.329850044263994
Sn 13.535403137268617 8.086273229438014 12.892171052075685
Sn 5.271220240583775 8.258750219060508 12.016176205339004
Sn 10.430934567687206 14.209036685101884 13.099022681400843
Sn 10.44924492128504 7.121446147059519 13.520138624855715
Sn 11.144130323375911 10.861310614541276 12.541168310186936
Sn 7.900411343819499 8.761286385108665 13.781046732596936
Sn 7.908868324177491 11.679578295538855 12.902373668066785
Sn 13.318320836278133 13.34226002019414 14.07166090542186
Sn 8.18416561994194 13.727463138529393 15.161879251245228
Sn 10.163576645996987 9.185908890647998 16.12240294313831
Sn 13.395792886999548 10.386885237310317 15.263968698737143
Sn 10.691728052263889 12.08010736286268 15.386660782320197
Sn 7.583375876244583 10.819547205947098 15.95168756856286
Sn 12.518281741502882 7.418290266773217 15.68422565891949
