32
Energy = -111.79320384 eV
Sn 11.98366051198723 16.19126240839992 12.163161045344141
Sn 10.857729952780279 13.472008448307637 13.085463032386123
Sn 11.65823897834352 18.75614721687907 14.00838231972369
Sn 17.13416648637904 11.333188061748096 14.792047367905583
Sn 16.772799133374093 16.99837286287599 15.474710008999617
Sn 11.169568325400707 14.738202605366855 17.493056491291412
Sn 17.76111514401699 14.326428187301378 14.135294900554335
Sn 18.28589505464318 19.86751833639464 18.154409510744962
Sn 12.01420057403548 17.694702162291385 16.83417674771323
Sn 14.62656176104575 19.789149445642078 14.561780028202346
Sn 13.89103759894316 16.680567094388564 14.501074373478245
Sn 18.213955313411653 13.810161333026999 19.59639803084243
Sn 13.348751771224899 12.87400915413599 11.085210043441784
Sn 14.365833611928316 10.169255587965123 15.51366237652938
Sn 16.241094706592268 18.251798780120755 12.560510810177751
Sn 14.144997536390722 15.507829247823066 17.34021740844951
Sn 19.16352485894006 14.892920325040418 16.796641837499337
Sn 12.314816133071718 10.868736346583228 13.313485458458754
Sn 16.32722867415548 13.318457421417522 16.989433844444132
Sn 15.408245978362787 18.716570907343694 17.465432528184827
Sn 17.672743911619346 16.808045886264807 18.72901119722317
Sn 18.860746303138416 16.13130284753996 21.42780223563457
Sn 12.597084189697831 12.685156870804288 15.88882846247475
Sn 20.234014916659312 17.792397723236416 16.747081713555325
Sn 15.253782253968723 10.682417477167908 12.495948559128479
Sn 15.019782958131115 15.448509655315885 11.814675942785941
Sn 14.720797652667436 13.328665500499946 13.981935297997232
Sn 10.266521754759172 15.998773761518342 14.754055670669828
Sn 18.973541421854602 17.602544829210707 13.569976039639279
Sn 20.282695986156135 18.317225814226514 19.89274599100178
Sn 17.869078479363246 19.943548153507834 15.215052305723116
Sn 20.89911919279701 15.327350354419766 19.290665407706
