37
Energy = -128.63589991 eV
Sn 0.49574038741329784 12.138391216660752 13.893502746701634
Sn 11.68915846673411 15.252536249862876 11.410894960752783
Sn 12.864744804329941 11.531333066020846 14.645649967876128
Sn 15.861068526484916 17.097941774957107 12.425350418519754
Sn 11.457207255320514 17.898937474516945 13.145833117124617
Sn 17.39022802638344 0.3674246389140934 13.610408029329143
Sn 11.117434675501215 15.063320253758903 17.06562151182852
Sn 0.8449723848317655 17.223351023856853 17.38892015139592
Sn 14.847016636188416 15.075541759877682 10.387920748447808
Sn 18.778465921014284 14.53085341251659 18.56719001291293
Sn 10.255194809544742 17.709743428680145 16.009662073455058
Sn 13.379407221043015 17.684842796759206 10.567946946692139
Sn 1.0194733062779853 14.548074921916951 15.747685229914886
Sn 13.839014360344674 12.86827174085295 12.155320986672221
Sn 13.413750154205344 14.720607042655429 0.19559819439393655
Sn 10.126996247350988 12.45239464563527 15.757410642925892
Sn 13.951085372265062 15.433390024518175 16.22569698118832
Sn 14.931418225472957 9.40879438609762 15.06572095093521
Sn -0.4329531943090282 17.38915391725114 11.562021821981068
Sn -0.6028209818842979 14.867569150406581 13.11785140631748
Sn 17.4414613172825 18.32805703831466 16.398328808268026
Sn 15.369599240833931 1.2393294297424404 15.95453320573817
Sn 11.24405703485332 12.446975070863225 18.612835682168612
Sn 10.669518407681107 12.688673036284817 12.747284268906364
Sn 16.32585669743418 16.113400220946257 18.010064833592118
Sn 14.003368772574863 17.59462016292492 -0.2648621858074106
Sn 9.760537778399307 15.303605576959233 14.065851209440785
Sn 16.766710317323373 11.660520178027378 14.574901578998777
Sn 0.604518974238163 17.611520002624196 14.400192830174944
Sn 18.84042980788942 11.868372654034976 16.967525592874722
Sn 14.141402498384453 0.2988160003926848 13.156969301472541
Sn 16.88024819940224 12.750911162189066 11.581937813843856
Sn 13.862146518890825 12.453534250014174 17.219509163308
Sn 13.218261949582898 -0.8889044383425886 15.915752777719673
Sn 15.711426310718297 14.495880413330683 13.97720257031421
Sn 16.128384116535067 10.553414875312944 17.581142464859106
Sn 16.23329129747549 12.995524139042395 0.10579631032097243
