32
Energy = -111.11967624 eV
Sn 15.901021938683158 12.245346976424878 12.282771184688748
Sn 13.725019832865582 18.538479849699893 15.100218526072206
Sn 14.435118249978022 9.01922220930556 14.313428518325786
Sn 17.74705141886484 13.652666869776903 14.017228710169917
Sn 15.423699608109397 16.085696409761685 14.218547840989318
Sn 17.85863307507481 12.235495823800234 16.638199244361925
Sn 13.408945505414444 10.121458333452292 11.548788245469314
Sn 10.649196207966003 12.373535933032692 14.319086043051412
Sn 13.64243540469666 11.902861195046828 14.444690049831825
Sn 11.799974488112783 13.820509737848592 16.863263855241293
Sn 18.053480556698172 15.974368303784663 16.857972680994642
Sn 17.17836660268078 10.242908411831113 14.411749294555095
Sn 12.651351608664326 12.435975794509213 9.172314785338491
Sn 15.179648823537555 10.617086651644891 16.843640097147244
Sn 12.431283846971825 13.546622692014733 12.036524605997819
Sn 18.48651659587706 16.789129801997206 13.92152511404113
Sn 13.801267953912046 16.328372754416336 17.17557421212592
Sn 14.835178141902515 14.258999914320295 10.222355747809555
Sn 16.34043468559777 18.192768042952476 17.911014852114356
Sn 15.341114923509505 13.789338874401828 16.23658691014203
Sn 19.391692125191845 18.151072579179196 18.534367033176245
Sn 15.674653668563291 20.624804866377254 16.218996481054425
Sn 8.943683440469636 14.69791138577825 15.348791618915357
Sn 10.588343622291275 16.747735730716776 17.280213158278123
Sn 18.58838046524398 19.235297164944747 15.774898496493268
Sn 16.368930638414984 19.02223086751202 13.59247918662183
Sn 9.272076453607744 14.333353225425737 18.287095623515675
Sn 10.699751177354443 11.256305511006328 11.228501851475034
Sn 13.320656561270981 16.417034024088114 12.154468597596965
Sn 17.888588513995195 20.729888274913566 18.380488039090555
Sn 15.468979627356042 11.156452781726237 9.605854020254704
Sn 11.560543846068022 15.889394706017189 14.578130510898488
