35
Energy = -121.60966968 eV
Sn 10.263153149790952 10.469836316101567 12.28780584027059
Sn 13.86944169356187 19.71457678853912 16.961166148575323
Sn 9.110467509063165 15.840571218614569 14.317553392339375
Sn 13.124221870380275 18.38700550973612 14.278526339541743
Sn 10.282606687333505 18.45707459354805 15.065476518012687
Sn 15.199693786245348 15.854206229220788 15.924270024685288
Sn 16.35014362468389 18.64423874176547 15.271787880418238
Sn 17.564237422373367 10.92379329331885 14.39586356008214
Sn 15.49236803955046 9.917018413977162 12.339993694035073
Sn 11.301843611323994 14.230856231361216 15.309550908805312
Sn 12.794003926047846 10.429736150206514 13.78571777711442
Sn 20.740179946140053 14.789210659749967 13.877585509344216
Sn 14.915874229081416 13.421699162704996 10.05014624071018
Sn 21.90577646999831 17.319574844735122 15.046021917695054
Sn 19.033576785572038 17.50758827283716 14.585232144766174
Sn 12.739879238332582 11.384197182412922 10.830324053820922
Sn 15.113033849333632 8.82478704688569 15.207912721929924
Sn 15.023460813545283 10.383310743867465 9.427321874683988
Sn 15.985765118517214 12.95923479579977 12.795241403454797
Sn 9.277079126518009 12.176984355817876 14.590626127640112
Sn 15.220821983951607 16.810789727499927 12.890531467814196
Sn 20.469766476458727 15.601881450800693 16.93192372207599
Sn 7.4137496705537655 14.06423950619736 12.962415649794737
Sn 13.999334716033095 13.046557911714803 15.0557188424855
Sn 12.358423466450326 16.886336058869855 16.788927104540956
Sn 19.818689807589113 12.76348243122691 15.946036002054345
Sn 13.201933332979866 14.536266143017889 12.260449443734542
Sn 11.87846567684584 21.074483476043703 15.215104547823582
Sn 10.941903660686899 19.4175427751492 17.79696896306543
Sn 12.984644466868918 10.681458013813945 16.684017324350418
Sn 17.767038317059164 14.67166263323389 14.529664560854645
Sn 15.894887610339998 11.315245284418635 16.88491670116994
Sn 17.729252013208885 17.094642515790852 17.549833268371714
Sn 10.32140972865272 13.725446329145585 12.16602027818408
Sn 17.518345638928597 13.996616280793859 17.478215121540337
