34
Energy = -119.15886616 eV
Sn 18.605985762206373 13.106663588614957 10.462771374929682
Sn 17.82078534991125 15.832084607197196 9.202197200899356
Sn 16.880432145096083 13.183102279342062 7.9044848632633915
Sn 17.29744815426711 15.49832261376635 12.107936472276368
Sn 16.51769093603475 12.69010115156484 12.81000487789521
Sn 15.747238133291107 11.536326897277053 10.194501797305753
Sn 17.15630143406552 10.926866342106328 15.13515733655604
Sn 15.208798486895873 15.869825335416161 7.522623530336374
Sn 16.449210789430737 17.229454108489996 14.341487443282361
Sn 14.806598360617876 16.054946477251157 10.475538743264591
Sn 13.893676267283082 13.532951879894641 8.784351475739385
Sn 13.791824478861335 17.345756023869214 13.006230011408169
Sn 15.550753324229335 12.953529490347139 16.758189323746198
Sn 14.70468664253918 14.80300126235936 14.562330193949293
Sn 13.649630534034094 13.622309852378306 11.949485567820936
Sn 13.736806267418734 9.212358658308386 10.274247743963246
Sn 12.049924982634803 9.045753264256247 12.766097043768873
Sn 12.0399318229461 11.590558206373924 10.32632739631918
Sn 12.938980436595303 11.461488945283296 17.35399784113985
Sn 11.569700694252345 12.827577619049215 14.905861721488721
Sn 14.04243379969041 10.976364153299722 14.195010082254406
Sn 15.101273150142227 9.470537191457762 16.7697725373666
Sn 10.623876917262088 14.581472863063391 12.30907124576992
Sn 10.277249992653191 13.847131283658264 17.388334372339603
Sn 10.001709696287934 11.207262543760093 12.955007059815827
Sn 9.128533403741525 12.619357520488162 10.539558466305017
Sn 12.439575013680006 8.644928928459146 15.714435394275071
Sn 11.594081740566978 15.909043720497879 14.978264478008937
Sn 8.578226746036107 11.7653953819597 15.654369140124944
Sn 10.36460827541992 10.085150785409823 17.474378558129146
Sn 9.344160029762833 16.730417182489976 16.781759164943036
Sn 7.365552040073352 14.51254806361665 16.141661162864825
Sn 8.612609280934725 16.291633877886703 13.868847009816102
Sn 7.599345966670908 13.544578042497058 13.162322633911533
