36
Energy = -125.59291507 eV
Sn 16.434762303311356 1.6573803613526024 18.539241014953888
Sn 15.171754159946873 -0.4947276733684134 20.06430721412774
Sn 19.820923063583457 17.04504144597776 13.384756122249101
Sn 15.758796098432397 13.798761371499559 15.855459773237586
Sn 17.323684326396467 15.186340917013684 20.409048003945593
Sn 19.98809459601048 22.252962381891322 13.972820020593426
Sn 13.05291002589436 19.471251217056903 -1.3533541304591696
Sn 14.596784751487696 18.898062401972826 19.291548090301514
Sn 20.50792719591338 19.776336324537535 20.116375988013328
Sn 18.695709620456967 21.409494044915522 -1.113208847846412
Sn 20.504565366153127 12.468597382353972 16.48278927482191
Sn 17.10961396230302 22.12807792256069 17.206179346850146
Sn 18.777659697179594 0.211644056347008 19.641301497820926
Sn 17.525506263318007 16.129021509802854 15.172073633625839
Sn 21.705538301469836 19.41479171283777 13.9411210030568
Sn 17.617977759337563 11.513405125923624 16.538167128667503
Sn 20.51772118316915 15.425336994826655 15.863009321385235
Sn 14.15996770768908 -0.44888288312135705 17.263278441905076
Sn 15.058604460503656 16.007501141566227 18.51216974346395
Sn 20.296125604684143 16.694378836809232 21.04046870697429
Sn 18.247096392303494 14.17440379126333 17.67891250595275
Sn 15.792429939225148 20.64193602477358 -1.1131524883957462
Sn -1.7508080135532431 21.176122111289004 11.649066330992824
Sn 14.51481743136021 16.67554881718284 21.443994413453133
Sn 12.562351379498853 21.038339850553175 19.184855883208897
Sn 17.478607144238225 20.117983933779207 19.419092400105846
Sn 18.84055370135974 19.838859609032998 12.453831319728767
Sn 20.015304652857406 18.81973859985164 -0.0993956176311643
Sn 18.9083368433184 19.78179706189887 15.49735456499691
Sn 16.26980552764928 18.50241598996847 16.6050913978326
Sn 18.393217972425823 17.307994708466413 18.40682157688326
Sn 21.425360443175364 17.263380907245043 18.242254770629128
Sn 18.524168271386255 13.331808371574661 14.219449626032285
Sn 20.22164495603502 -0.629747590879304 17.076297704241778
Sn 17.40051988735176 17.972752556773838 21.819884911788133
Sn 21.63104887330501 20.01621671528271 16.979778243803928
