36
Energy = -125.95383599 eV
Sn 18.967014094254676 9.88972185355191 13.923726548007096
Sn 18.269514677476238 9.667422735240471 16.78084700013648
Sn 16.150665006705715 8.531199119593088 14.859490340097798
Sn 17.633595472114038 12.358603037887736 12.420602691258237
Sn 16.369232183693132 9.699700315521245 11.97356108518426
Sn 17.68292826250491 12.414013736037491 15.499660683177085
Sn 13.488763721396685 9.048508638980095 13.517340207829614
Sn 15.400245035874917 10.717544087089781 16.925539882831377
Sn 14.319511711098865 10.973223183851829 9.12204376452171
Sn 15.900780149381081 14.979242395517392 12.431020504871299
Sn 14.068496090416511 8.301423495542359 10.546112811889378
Sn 11.545254955507737 11.774729225379195 8.242968730926082
Sn 15.021548462841153 11.654176169945858 14.005290253210601
Sn 13.926678773922593 13.206336819175942 11.091473737766727
Sn 12.94798592672859 14.66503557078443 8.63739592548086
Sn 14.86451832028415 14.05905235193816 17.40346172449171
Sn 11.143029152043619 14.015874308792966 6.430520432435811
Sn 11.39083081130105 9.680412869623273 10.3731710903279
Sn 12.624918067232228 12.487100077226748 16.13010497597955
Sn 14.40489936705216 16.67181617552632 10.355521919538806
Sn 10.994989639153333 14.916346584653486 13.962158987304402
Sn 13.931804961831215 14.841947536167005 14.604712851733144
Sn 11.66492718311616 11.842954795835922 12.452504380438487
Sn 11.875579947703418 14.437124767755622 18.44610081913799
Sn 11.37134927029562 15.777653642528978 11.09495450095417
Sn 13.575495624433174 16.837466262055887 17.230643925840198
Sn 10.378769582208813 16.553598865796026 16.81878529224927
Sn 13.612233197329898 17.94771769941985 14.308282525979434
Sn 9.705595980728095 14.352703088233676 9.050813085989413
Sn 9.554557211276785 13.70182963132459 16.518798866013785
Sn 12.410231997177023 18.534168535814537 11.685555371779602
Sn 10.73902503621798 10.531360967215983 14.925738737856738
Sn 9.200366847803837 11.841616837263373 10.651470912977821
Sn 8.885032623243765 12.67955072882959 13.608433979545039
Sn 11.698782668245883 19.19059123348346 16.474293713368567
Sn 10.450118451413116 17.957143542913133 13.94353325044508
