33
Energy = -115.00608786 eV
Sn 11.264945598374053 15.75667428131636 18.871228363365883
Sn 12.17057549135844 12.857778119184845 18.041726364282695
Sn 10.274150289514493 18.8263435609008 18.624482371477125
Sn 17.80307432305751 18.046545248798118 12.190733137067534
Sn 12.475706826519628 12.547982722875073 15.089160342320495
Sn 20.12339928647641 10.950752176141583 10.248261972475097
Sn 13.958549371177597 14.27350135508565 11.118315241215056
Sn 11.717539665191527 14.670673194315995 13.117793376323485
Sn 18.952627611050204 18.460758205918435 14.913824188339472
Sn 13.728549639284008 17.70139448589972 15.240299881341807
Sn 16.389191544194915 8.879538997697878 12.38345054426001
Sn 19.335791697218358 13.438050258127332 11.563776572517638
Sn 17.442910155012154 20.373625797374682 16.533506732952603
Sn 14.479543345346181 14.859702277709266 14.246408788991742
Sn 14.059116131947299 10.048998936788077 14.108436669240119
Sn 13.9215696488519 16.43754471542043 20.23745741449187
Sn 17.246815163215643 16.021451495327813 14.677448074852357
Sn 17.183830110876556 10.659161573196162 10.148739813293902
Sn 9.033807874686381 19.347121709103927 15.97060932361137
Sn 12.324943092503728 11.74559546987661 12.119498114674347
Sn 10.792293954440208 17.00150513887189 16.000569677952242
Sn 18.42728351081537 13.250025670511441 14.39510123200847
Sn 18.862715780719036 10.51205409697297 12.87253763352295
Sn 15.698516459989177 12.2596795492515 15.408172614287034
Sn 13.946394831734136 15.174071930553843 17.369867591010365
Sn 15.60392181667289 12.004285904940888 12.266653706605053
Sn 16.93388616644213 15.12202449800886 11.795772841188098
Sn 11.858728864368207 20.08454646229956 16.098727096593375
Sn 16.157443695410738 17.766755309190167 17.205324349358868
Sn 15.239433654741983 12.567479113066842 18.39617632825855
Sn 16.016334229939357 19.406549724019097 14.106304207971359
Sn 13.214478597341712 18.537160564173625 18.291426825588402
Sn 16.467900724210843 15.32398735977853 19.082688748145006
