36
Energy = -125.77016707 eV
Sn 14.770672268581333 20.32163929133695 11.362616606442577
Sn 14.987897679243963 -0.734269233651562 19.028560269953132
Sn 17.07659713850948 3.2857252396256307 19.097953183065044
Sn 14.034699562017751 14.836077025765226 12.934345362519977
Sn 19.92200548740173 18.922871593239655 19.224336393789862
Sn -0.9023807348055577 16.534771076250852 12.003014680619051
Sn 13.899759242826837 12.677400986348086 17.118685084361566
Sn 16.66722758212954 15.16075576975601 18.37792921345353
Sn 17.320854211873076 18.579096000962394 11.376010803739886
Sn 17.944883062752037 0.5468726574022224 19.067264230595427
Sn 12.266273191486896 15.175600657441933 16.9643263448032
Sn 16.538675659513782 20.61379057783173 16.29644656160915
Sn 15.190125349880637 15.051593301715881 15.75730369302665
Sn 14.475496031875164 15.763208214629383 -0.37324451612288023
Sn 17.99058233709788 13.424104973627259 0.15160207705507295
Sn 12.274908233170557 13.66724699599473 19.692541684016337
Sn 0.9549072983315727 14.838148525027414 13.798449893664612
Sn 16.737783017579808 15.497519631624623 11.398985533994734
Sn 15.22316618480437 12.920412983003777 19.848654744189336
Sn 18.860239805393444 14.288942608203516 13.74174345571921
Sn -1.4115373344830806 19.22637712191572 13.66629994776858
Sn 1.3879890541730946 17.8124101471389 13.625093740672126
Sn 19.09050736504689 15.92780356029085 -0.9101098881495266
Sn 17.150951037204333 18.414011758785573 20.33311912609745
Sn 17.957784924233042 2.36685730253431 16.370655719731307
Sn 14.272865848150966 17.45671527586388 11.5987765076718
Sn 19.663479474508637 20.647614119620844 16.51045058844943
Sn 14.511816661251755 17.389093704280018 17.851272478745244
Sn -0.8353690290908414 16.657978809745643 15.397187573512086
Sn 14.976492096316681 1.994604589439948 17.430432155127463
Sn 11.979222879312617 16.83589748516962 -1.4440438775002642
Sn 17.166360616608053 16.9217264222141 14.09660035114535
Sn 16.911471087858974 16.163540864539485 1.3318093324699634
Sn 15.071976872745472 19.309693895296423 14.055589317309309
Sn 12.91869754549843 17.258796465317207 14.479236081431694
Sn 17.93683042233858 17.932490052029607 17.086983000927187
