37
Energy = -130.46741624 eV
Sn 14.822111519029185 8.172149995224524 6.833280571171716
Sn 12.127913141643871 8.75697123858956 9.053386809411801
Sn 8.93839508465803 12.645855207808195 11.117925059968991
Sn 9.966044622805168 13.691620818274645 6.813697220170461
Sn 8.014720962221626 6.156456858740288 10.185533813786359
Sn 14.804996640000498 8.922498282305057 12.418854456781942
Sn 11.37722342523478 6.2866752866958695 10.607146135247948
Sn 14.65957824368283 7.059675589037445 9.856178151640261
Sn 6.691130831690923 11.805394334318288 9.143958107356239
Sn 11.249951888277891 14.7160027556275 11.810973028375345
Sn 10.854064123820091 9.593557762572612 15.098499308827376
Sn 13.823106964199935 11.963377095626797 11.783790286149879
Sn 13.053498675495643 10.788457245312134 7.014088985725384
Sn 9.085372370762014 6.330435096046319 13.071115490667374
Sn 6.3502427792701495 8.678730315891709 9.544109977917017
Sn 8.351322580075555 12.015557983761996 13.963714485299308
Sn 8.247303555231774 15.224017270029224 12.682554428794067
Sn 8.378893232963868 8.764697760474748 6.988453034434651
Sn 11.737285732979766 8.176909230211072 6.000111350913793
Sn 7.292400350151738 12.27191455378365 6.306829831510421
Sn 11.677284281241405 9.970154721874685 12.099369531827422
Sn 11.471735134790734 12.450049269626552 14.010208904300816
Sn 9.64929772092536 10.999492332273213 8.537708202996544
Sn 9.267450720407982 15.444184604077952 9.586985776837981
Sn 11.772690355297463 13.110971190911442 9.172745504417092
Sn 9.867677360265935 6.204216986709104 7.679701243200317
Sn 5.992560731686893 7.315933970632607 12.389460402461603
Sn 15.076712859009602 10.077158344508156 9.37292945865296
Sn 6.170858435747745 10.38206501890132 12.272661970519101
Sn 13.788337327504305 10.720053231046476 14.645468525601753
Sn 7.205619903692434 15.10021339315165 7.4042862866443935
Sn 12.3102256383606 7.369229892465147 13.47161830790902
Sn 12.945840799849941 5.7982974494502235 7.655754589694938
Sn 8.812833300644561 8.960114780966096 11.410225918740881
Sn 7.85855322324665 8.778975677466141 14.407683878604013
Sn 10.077600562138048 10.90716198771125 5.380122878280764
Sn 6.39969347415392 14.56130102105623 10.379396638320415
