39
Energy = -136.25203527 eV
Sn 19.713980855160564 -2.3713216702473234 18.49741998655739
Sn 18.269064922029415 19.09005851833122 16.243579329476166
Sn 20.913674844369954 0.06546801968961968 19.962064714438895
Sn 21.93105349516774 19.96466302720363 20.562444246427436
Sn 1.473701196253694 21.432292765585895 19.353835074992894
Sn 16.95806965553593 -1.7664292930883312 19.904834035439364
Sn 15.93975471492861 14.214135182383707 15.069691078907839
Sn 18.53138133031689 14.889933259931484 13.728672994351385
Sn 13.913435157485337 16.033529497711857 13.540281911688117
Sn 21.10363803886872 -1.357601689440682 -0.08247462706089434
Sn 15.161722791846595 16.78699372806892 -0.9906024696385799
Sn 16.954570828611637 15.113304342156736 19.783874801678426
Sn 22.389767814219898 -2.7811760068863545 14.267612327718666
Sn 14.235707764502843 14.170923677607814 17.648146374569748
Sn 14.689113680825367 16.863273185490634 16.447930734981632
Sn -2.5667947890467366 17.521600292217045 17.805705971641174
Sn 13.13207640260541 13.282366609495185 14.810252051002319
Sn -4.500888375046888 0.20715129239531202 21.783915492230076
Sn 18.116044078294273 15.87114729565709 16.701951616575315
Sn 19.341454426953632 20.54183776888666 13.841083421865848
Sn 15.526908096374644 13.891723557098791 -0.9229286603842858
Sn -0.14499791953314858 0.5913131961774801 17.853916884446207
Sn 16.68477897569222 18.090655305019336 -3.3475981520113844
Sn 15.457971325463431 -3.3652847775412105 -0.8744273507477288
Sn 15.567909877843919 19.5524962016167 17.396059028326075
Sn 18.729999132191985 19.58204238821858 -1.3449779486450404
Sn -0.012141769348273261 17.758062520362234 16.061429047374723
Sn 19.448226265469604 16.798670232542822 -2.4053550252646088
Sn 22.559110875391895 20.455225772974316 17.356723752544113
Sn 20.61954779222684 -0.7642964748706352 16.048747331212304
Sn 16.776150197771734 17.31849300799187 14.01646353582575
Sn -1.7559121643216127 1.889353419814619 -0.6902663533884037
Sn -3.443254408321318 0.5730335673562063 1.455448251639716
Sn 17.918034215225386 15.422627071798038 -0.1287309629655666
Sn 20.472644149940056 17.78252708892629 14.400243214355074
Sn 11.968370747131111 15.75477531720303 15.957807562279624
Sn 17.377800459662822 18.207887677656778 0.9642880866364003
Sn 20.92118594000721 15.084353229472207 15.674968544732808
Sn 0.4860039298928478 -0.06747382012931187 21.67003856126395
