32
Energy = -111.96301213 eV
Sn 19.298071508852246 16.751427937405577 14.040080637506318
Sn 19.262398225882865 15.192234289264372 11.468555255449624
Sn 16.56280846061853 18.13030025519106 14.677065283612356
Sn 17.540055642367488 15.64854212098461 16.268947456577827
Sn 17.94656238440882 13.748805435196209 13.929337811242851
Sn 17.493509573245657 17.834134390167353 11.750252705339307
Sn 14.088452112568055 13.73940555756949 16.94698500206427
Sn 15.150804613468168 11.203499075652529 15.760495052574852
Sn 14.49264873313147 17.223558748605374 12.31859569067152
Sn 8.812377541653762 15.352036456319475 15.519306191771808
Sn 16.40316100677914 14.929588200009988 11.29982937638843
Sn 14.945133459396612 12.500372984390681 13.143042544728463
Sn 9.402015804900657 14.686171259035772 12.445440462048433
Sn 15.180132294005581 15.311744318044283 14.549038217111997
Sn 8.512962611576194 17.328455880389907 13.317896340449305
Sn 9.43356912661332 12.500060522322618 14.587603415975567
Sn 11.366171706529128 16.99090884858083 13.869000713308035
Sn 11.736345081775125 14.590082993180719 15.538013866800497
Sn 15.309085086415475 12.091020280251984 10.19815660877064
Sn 13.817280313173045 14.853304565516414 9.783064002634314
Sn 12.510736432691921 14.238194027818722 12.394851437539803
Sn 13.168799963738557 9.277705888228972 14.241695661878042
Sn 12.227055466713344 12.101193584623383 9.81971984959896
Sn 11.537992611342373 11.299973212107354 12.682953684138491
Sn 11.961768965875917 11.498242633678986 16.1883416207817
Sn 13.733264773238657 9.518731596968077 11.219530114597518
Sn 7.792884843835071 9.98048822284259 14.751370025670438
Sn 11.92070118900847 7.000673077928878 12.093178711059132
Sn 10.799718500608106 9.141837392577916 10.03470154952889
Sn 10.221428494542979 8.402527118839817 14.335458424630392
Sn 8.689788475380732 10.372470514496944 11.961183474802619
Sn 9.012612713547863 7.312890415155833 11.755885477961867
