35
Energy = -123.20143735 eV
Sn 6.883407819963116 14.834514792180736 12.186073800983994
Sn 9.33296843562734 12.240236557797209 15.382294721778415
Sn 10.524468116758579 15.262428228173547 14.988248206063806
Sn 12.574144525318893 15.326704432323929 12.453970033408908
Sn 9.590815968475933 16.362785434040518 12.272755816022794
Sn 18.7362978424351 15.749456875825494 12.467192132914235
Sn 18.861770105185936 14.960771589784391 17.84479939422749
Sn 9.605968899390772 13.358180142705013 12.463564883420663
Sn 16.779094317829358 11.127006113360055 10.511602938109366
Sn 16.411079555665825 17.820860318568098 12.832788552560487
Sn 15.683385041426586 8.439955093903807 11.988108914365688
Sn 13.723387908898848 17.63094980044004 14.12015416970574
Sn 18.6853292994082 9.446662331889357 12.185515580255341
Sn 13.88191218470449 13.476029353720058 17.118367220139874
Sn 17.365239697775834 8.16809405601284 14.60240869160178
Sn 18.852103241956826 12.576130751153048 12.436955887487494
Sn 14.648205767634709 9.37208292361148 14.932322384355082
Sn 7.74096589880688 16.677804532246824 14.695393997565164
Sn 16.125638366315677 13.921571243980912 11.902864235660989
Sn 14.148269354155278 14.772934296388563 9.763063673702199
Sn 8.559456245147114 14.717605447474934 17.112838702567352
Sn 7.240295775364339 11.754906593321572 13.091393273366558
Sn 14.42691908365146 11.143253245555908 12.575118741449044
Sn 16.845841271338063 17.468579531457582 17.595915941508736
Sn 13.937768993211872 16.50051348455723 17.058761662216277
Sn 16.9469467781943 13.059491990760232 16.63782753185878
Sn 12.42347804980093 12.624891144568908 14.457276020841125
Sn 17.023915992956866 11.193978203062876 14.379037037916763
Sn 6.6159994483958755 13.845113314062438 15.070139893505807
Sn 17.636365065814946 15.823268235037386 15.273071337844712
Sn 16.009070049893417 14.867681188833947 18.94643726990761
Sn 16.713780455115675 16.49850647513264 10.161821568175032
Sn 14.921273364625312 14.803348398792027 14.570491889426783
Sn 13.927256861263915 17.68146798587186 10.86478705908841
Sn 12.2542513707227 12.607065118300863 11.06490354807916
