34
Energy = -119.03936275 eV
Sn 16.16160847517544 20.778094770305557 17.60003381198375
Sn 14.128579009853105 17.963108153824273 14.810952796295247
Sn 15.030203833984034 11.442699823715817 9.186832605732885
Sn 12.449506321256193 11.819208411647505 12.353075577326756
Sn 11.66423808948705 13.26123029816308 14.890664525675437
Sn 17.488817769354586 14.090610058445032 18.279765510652236
Sn 16.870102730397015 14.073503897947253 15.126466369120996
Sn 12.38922287713651 13.710793492156577 19.53900317690736
Sn 18.58551261728264 19.77655656229848 19.02758340618841
Sn 14.501037574543478 15.022994367187316 17.75952258494406
Sn 18.51568498497703 16.68489665878035 20.075131472071874
Sn 14.512237996829256 11.753005413879782 15.11392610290045
Sn 17.81788147018926 11.38965082178783 10.443953844224689
Sn 14.02266939199156 15.002538393033573 14.7137773467791
Sn 15.016734531469803 12.070341438261076 18.713674178126062
Sn 17.05001401013714 17.198686652302506 17.560619766473987
Sn 16.321366971828223 20.382352282021714 14.440199115485347
Sn 18.093982397867663 13.939196726406944 12.123120562026175
Sn 16.59292806614462 14.06779322947267 9.400216712314636
Sn 18.667988494656157 19.08295388437442 12.94015023833319
Sn 12.122006227314248 10.04032679114863 14.711454516229669
Sn 13.41594356517293 13.85996353481861 10.236060882526932
Sn 15.894912149800112 18.395793180458156 11.80851041801863
Sn 13.260785785836491 16.845709667037134 20.062046986385834
Sn 16.00799189248491 18.484871742425792 20.491859064784617
Sn 18.728254850152847 19.332021098862292 16.066053586445577
Sn 15.819149447308469 15.261392431997074 20.593559641970003
Sn 14.370188423116495 12.767823534638815 21.507713366936695
Sn 17.109056589195173 17.051270822805492 14.481154938434173
Sn 13.693192676816132 20.109113542354805 12.980870043342247
Sn 12.276211739306463 11.586697429854118 17.386544289190077
Sn 15.503756163817755 12.151196004594954 12.11980115233465
Sn 14.326179995472964 18.362468468360706 17.74060055436968
Sn 15.343696361269133 15.395095819615936 11.972318610316675
