35
Energy = -121.18632633 eV
Sn 15.265264615189093 12.091549375047634 18.37418933053678
Sn 18.795047089589545 13.946648874835114 17.313012770513502
Sn 12.878982150088927 14.49429677892521 11.081554606756699
Sn 17.609916637550732 16.54821234743545 17.797344016665352
Sn 12.105430736688021 17.851931326470485 17.231770102418377
Sn 16.965790155658734 11.925330159662044 15.619372290622067
Sn 9.924575055907315 18.25132763894481 14.815238805186315
Sn 13.581384718572755 17.368789205011158 14.452720854662795
Sn 17.48811073063795 15.941241160761018 12.680207570361018
Sn 11.22202488003973 14.177546763001658 8.718277747835513
Sn 13.891020480197266 14.746926971115604 18.128431572723045
Sn 16.108674190820157 11.09276057481826 12.94651472004107
Sn 15.855913164201281 14.935078391052336 15.917663745803761
Sn 13.057690224242103 10.065023117080093 18.772586110314258
Sn 11.513426374071464 12.700973621962426 18.268698822087188
Sn 19.1518132139932 18.521616471557376 16.26565837800664
Sn 12.335491818014914 20.052741415607088 15.215533072863582
Sn 11.10072810206104 12.924460536213951 13.202523232207271
Sn 13.161923277741392 12.965424613330107 15.577452589137472
Sn 18.15567723625686 14.92297785139518 9.883776503514907
Sn 9.652762568003537 12.900971723117381 15.89491794008805
Sn 15.182548531686283 13.986312999894912 13.094478529956058
Sn 16.643753383747914 17.73860046367917 14.854043301445344
Sn 11.155031707158868 16.32023058279 12.665995928885424
Sn 20.398870083712293 14.790744912941905 12.359526711254912
Sn 19.52821573282943 17.24658005159368 10.866962838885707
Sn 18.202423725865007 12.895929056464214 12.005865881875906
Sn 19.70818125007577 15.797986741963435 15.248181667371776
Sn 9.40901845371016 14.43564886939607 11.070737420430172
Sn 18.132289640028 11.168807306397772 18.149108679962556
Sn 11.913622614752214 19.151987223482674 12.419352750522679
Sn 11.384246570137114 10.370397942531946 16.174592553720505
Sn 11.227362250791291 11.867866607684661 10.554844293283304
Sn 11.234481480775313 15.537339854594247 15.658158928152568
Sn 14.38215397948557 10.11058798000229 15.97715587389271
