34
Energy = -116.39628567 eV
Sn 17.719672320288925 18.009880087443996 18.876841763497154
Sn 16.97225006282906 16.185458200149338 16.635608804134495
Sn 19.392403641226203 16.20191763534232 14.093323657442115
Sn 15.992311877327161 10.78698894014932 19.321924677863738
Sn 16.642177862831577 13.203488281755716 21.055865272086404
Sn 12.66841637228309 12.377657101075517 17.72451283191809
Sn 20.63570911835436 16.20244854926678 17.080337678280056
Sn 17.174966407593356 18.161125780904968 13.876851271630125
Sn 23.634531236463523 15.757275756522393 16.457311412984232
Sn 22.428755248729715 17.324694837552656 14.333816702622393
Sn 11.685421825355192 15.665734386041033 14.225945417711102
Sn 19.091544371602296 20.575085246882217 18.002523097664383
Sn 14.710863049312714 14.677473016269442 13.59588165204454
Sn 18.882552982254158 13.799008722118016 15.651648758913746
Sn 14.566052304380895 10.282398694891453 16.80215312624987
Sn 14.160123234602944 16.906506041470227 15.541415973267782
Sn 13.621985700702718 19.535820527139286 16.655109871818063
Sn 20.676009844217308 17.771437104598014 11.867950974733517
Sn 12.641183905608518 12.666979212710137 14.553349884332674
Sn 15.539366829327792 12.94518334376063 15.893807416047535
Sn 22.038607749409497 20.12039773858304 13.526327636311118
Sn 19.135885227622282 20.29731281167745 13.097129134760213
Sn 9.071967960156393 20.290619055953222 14.882201563464363
Sn 11.780414262280535 16.0410998259265 17.406786916216067
Sn 17.455072265568774 10.479470598012476 21.61805699467637
Sn 10.637817666721736 18.54058871477452 16.339784789753633
Sn 16.75794201306406 19.72311972149169 16.46658722266721
Sn 10.374759212023239 13.664327615746627 16.282514528121087
Sn 15.035373167486005 13.813860203038894 18.689303412357326
Sn 11.696474038681218 21.273968064222284 15.375668315029001
Sn 14.481447740328367 16.721774666859552 18.624895071442385
Sn 20.07421056761531 18.998652209709864 15.689581075207835
Sn 21.756081349449854 14.096673778165913 15.021234806421855
Sn 15.110721575219703 19.605774732558956 19.219087598939062
