39
Energy = -135.60382034 eV
Sn 18.02107608830843 19.09237049656498 17.756393390003367
Sn 14.09068928901935 10.679185197898981 11.857969204160694
Sn 15.859674060097477 1.6567150027644806 17.30550858094533
Sn 15.736346740557837 14.646223396938279 -0.7833087229329857
Sn 12.82709930716671 14.542991816791938 10.79931333245319
Sn 10.560872108700794 18.122232124408942 17.056930967602643
Sn 18.84248818370678 18.101987037243102 11.475223588521894
Sn -0.2514724870529372 12.51847095564001 16.526512215527465
Sn -0.5072572341743639 17.763082666226424 14.897304356210984
Sn 11.842862085427445 12.479258866178528 18.132374205165455
Sn 13.667251040558465 14.02515862462552 15.844628445534916
Sn 15.384483669022355 10.247603637539191 14.603319773894377
Sn 12.604828387912848 12.684506587710207 13.342694186225115
Sn 16.183530819921195 -0.1866833837736053 15.022637397490287
Sn 10.35441226882547 14.513127111704682 12.610487675250342
Sn 14.68721576555097 11.57098814016403 17.25695629241472
Sn 15.066382291058325 18.572877574033654 18.742905995599628
Sn 14.822963934808783 16.787003379050006 1.7077385509605956
Sn 12.96997661705826 14.809588950427935 0.3433158509568189
Sn 13.265109956283116 -2.6120279579424133 17.271762533045983
Sn 10.406124088034888 15.304252206221989 17.89702185069839
Sn 17.448713400345014 9.816106000374734 16.955225448582972
Sn 17.210505988100063 12.062117239490663 -0.4631465367721376
Sn 10.467867615218074 13.142351900614331 15.505944251361598
Sn 11.116388823152212 16.35244859599261 14.836960808686646
Sn 16.338848643744242 0.0865923286248936 12.080213959692562
Sn -1.849578331007704 15.21338760691132 16.239044178294556
Sn 17.524677291800963 16.734694528594737 0.37705965008020303
Sn 13.843845141436432 17.69144997523839 14.006509169892679
Sn 0.4588360347598835 16.78175129048485 17.66569103364997
Sn 15.495814480207502 13.188776290744247 10.280543657775551
Sn 13.439306513028109 0.45676747191648864 11.877911251444207
Sn 14.029351473330554 17.282951558775633 10.637589095615063
Sn 18.53473383272152 10.340980778958123 14.221766847599708
Sn 0.2101405401568786 13.122841259397397 13.535489003503097
Sn -1.431503733831019 15.598896412410012 13.110869899732569
Sn 16.563529383448845 12.471938366051592 13.017666058144806
Sn 16.78857340572237 16.183689693841206 10.389284531061442
Sn 14.967189169643145 15.113590063155435 13.017931813919242
