34
Energy = -119.73366311 eV
Sn 15.27615607452678 16.0539519045694 19.855518767499646
Sn 17.543842834414008 17.646382471756436 18.274851973201347
Sn 17.68262757618319 14.60098817655381 18.90175206536433
Sn 11.756417303584794 17.230011037896453 15.747690438351642
Sn 11.67775319449814 14.91896802404309 17.877990501997097
Sn 14.779362416741952 13.919584345963825 17.671417679432615
Sn 9.712900969368379 12.754553994412928 16.991367210667253
Sn 16.783087253962236 17.919223992019443 15.239801913773148
Sn 10.103100054575844 15.903158180831742 13.117998152778561
Sn 14.617596787125011 17.109616828515815 17.1746967204651
Sn 18.56905854665441 15.660222422615652 16.096503448381075
Sn 13.912956087006744 17.074532204774343 13.591596164916412
Sn 9.135230754255339 15.675130804648335 16.07325288344846
Sn 12.037271881972629 14.298384533005544 14.729595286683624
Sn 15.6016685684478 15.046375562415292 14.986725916470931
Sn 17.398366373151777 12.860693254295557 16.392669145387217
Sn 15.261551852204443 11.593254977390465 14.001078294800948
Sn 17.644256552012806 13.65028735070294 13.071311324223803
Sn 8.87880783098212 13.253566299687684 13.891172587259634
Sn 13.270986474292984 12.642430629738959 11.820758018871615
Sn 12.632238652441671 11.793600554029188 16.216835962073123
Sn 10.062069702896503 10.568066417566698 14.811709047272773
Sn 15.717139453266906 14.19280262070596 10.755706412185388
Sn 11.211471750269347 13.574330475124874 9.50851500239831
Sn 15.098774663912415 9.053417216154845 11.918124794107255
Sn 17.429350736694907 10.830508671106287 11.98469203607621
Sn 12.439207672699542 10.013469251500105 13.126834165058815
Sn 12.867442401719487 15.512803285337801 11.197148582058897
Sn 12.338803197958926 10.561835752452602 9.613701106638043
Sn 9.938138716463868 11.189355880492178 11.755649057200655
Sn 13.71973347133451 15.24987378918078 8.334048122242478
Sn 13.125593172293975 12.503199290462026 7.356971888641172
Sn 16.100429503096162 13.361819302340123 7.867626199869202
Sn 15.23530548299108 11.2875541871329 9.784501841414047
