32
Energy = -111.75686721 eV
Sn 11.746776217958473 7.910782939101098 13.242351958383107
Sn 8.821909944359849 7.051127874690525 12.505440387122867
Sn 8.766310761654037 10.308682130836278 7.5481067758507745
Sn 10.85973075657124 6.881827496900048 10.192674039628187
Sn 11.852941617647996 15.883339692011257 10.881041593432483
Sn 6.4918546652916715 8.697628434939299 11.739334040977708
Sn 8.256337678837275 10.84689984381304 10.768971830912209
Sn 14.173518952928472 14.230888180086788 9.804649675262059
Sn 12.901266299295173 7.804407530806232 8.221048657347982
Sn 7.826375808637671 12.80268069382676 6.243218196640661
Sn 14.926874020468775 9.703199640450046 13.895374471119975
Sn 13.886347218002996 8.620385669937232 11.093509515334114
Sn 14.830659087011215 14.425994697294307 13.046123099302239
Sn 11.679762245477654 10.164173229233528 6.779802070650998
Sn 15.195419853939713 10.566393313248625 16.765438268849476
Sn 8.064550435804914 7.8180372567363765 9.286849059486816
Sn 12.331370340833349 11.017261025052596 12.512277151296388
Sn 9.47061041141966 14.005705890817225 11.91421129874298
Sn 9.313705573646766 9.898629000274664 13.340404955053229
Sn 13.888177413502156 13.037627861451734 15.753097502299916
Sn 12.394802047924436 10.004581040772926 15.63591757937506
Sn 12.098215171055912 15.514639971810682 13.847924846046693
Sn 9.270963604962732 16.061931215844066 9.451913135696925
Sn 10.220949976564325 14.252664104415016 7.282043095545794
Sn 16.511223389613694 12.332160221917485 14.281653253950507
Sn 7.7720742158494165 13.275339455607993 9.117763583523752
Sn 15.162256560126178 11.64098072303968 11.477176039305352
Sn 11.081073396419798 12.854095464310802 14.607248464944588
Sn 12.841026635513069 12.903965127581257 7.351125002325805
Sn 10.973964807183624 9.868098179771733 9.693588835687999
Sn 11.365721491366383 12.937402177304161 9.947841839159647
Sn 9.531468364663914 10.944771693676033 16.125418950235705
