36
Energy = -125.41454682 eV
Sn 16.016698352852295 13.729626359556498 20.505975609274124
Sn 16.890493117732298 12.893586598516775 13.003236828692893
Sn 16.885144364615215 12.356346876081009 17.898090191053118
Sn 15.75014064228233 10.851004813318346 15.109842248105371
Sn 16.444471733884843 15.367415999404399 17.94656683494011
Sn 15.57027861161254 14.059336382251992 15.422820686894005
Sn 14.733632537085533 10.857864163912327 19.645769616539127
Sn 16.095526960802854 11.23452826532412 9.463443311776247
Sn 14.096020555190407 16.06831531048633 19.647850823343546
Sn 15.199172263953308 10.130601365814325 12.132333711537822
Sn 12.930268837000684 13.298371740792664 20.178318914994275
Sn 16.177036083241447 14.070671065174956 10.263030691501829
Sn 14.849602173596947 16.73567963368135 12.68936624561094
Sn 13.641498408812556 12.247661120464533 17.211549300819886
Sn 13.8801800057876 13.176583230513899 12.355523669158561
Sn 15.192568630997314 19.275468358800136 10.483877784354053
Sn 13.52918435317213 15.433244420948204 10.078083692009509
Sn 16.918846536266617 16.864164635734436 9.92991672498992
Sn 13.132270268367959 11.137367836432878 9.939953089185282
Sn 14.311884375908459 19.541036299425446 13.406479058055059
Sn 10.027612445119098 13.337140592868707 18.8741217274445
Sn 12.842425772263374 15.2311466305379 14.560771703454177
Sn 18.51370529433055 19.162730753026555 10.535754109897592
Sn 12.264355280787017 14.882060855442916 17.51714098427185
Sn 11.438255064871349 10.668164919419459 19.618686158693965
Sn 12.430545520519965 18.100477374196757 10.961912944523942
Sn 16.864309522406494 21.18775668960493 9.19806777679434
Sn 11.848484165233334 17.975419124859286 13.822747690763359
Sn 12.723892218407244 9.355274826389037 17.139266351874294
Sn 10.601088012901473 11.437711840070522 16.62926474995116
Sn 16.563420672212473 18.633306902150565 7.6704484077817385
Sn 11.018141810292217 12.942207037023971 13.805119678024695
Sn 12.489956901009371 8.68836252786204 11.578784403645836
Sn 11.342576261900772 13.47506448339 10.649577042112224
Sn 10.336180465849724 10.793331083725292 11.787287944119129
Sn 12.708862223813686 10.424165515137002 14.094999237785034
