38
Energy = -129.14235428 eV
Sn 19.788027627328876 -0.021761463030487795 -0.7333605674793672
Sn 14.32242856800704 18.403346953980968 16.071332809105588
Sn -2.104817530606902 -0.8866552253313886 2.279608168620192
Sn 17.312350185795154 15.036487088331853 15.736991063912685
Sn 13.201272161715668 18.3356570260228 13.06663215785217
Sn 16.117180522977844 16.143521883393248 -2.918896548936834
Sn 3.594689028349868 14.829818318302086 13.476138919858242
Sn 14.92595593386858 13.705048845931836 14.319591589148343
Sn 0.7266807634950616 18.821282275810432 12.121948838375332
Sn 15.531866455426549 -1.9564601112573505 18.963027547399143
Sn 2.1360362387481597 17.28732038447872 14.090412830011463
Sn 18.861822300167567 14.533824244100147 20.53273064839559
Sn 19.416845416007583 17.45272062831647 20.200684986959523
Sn 13.914505381779193 20.962202371480778 14.32330001051288
Sn 1.8448149754784282 20.188202027853386 14.718628698950758
Sn 15.417711033977389 16.458201347306492 13.315962268127596
Sn 17.384612002019868 17.966737475870957 16.429444067717515
Sn 16.679919836849407 16.434697311501225 0.1587281919982758
Sn 3.114098612708577 15.614220397927895 16.26834597011123
Sn 17.680841261014212 13.307638002566776 18.09322550897954
Sn 15.84066920821572 13.677718480049409 20.68376327985817
Sn 18.61431897670546 -1.6494272527028342 18.59523288552868
Sn 16.33688997000518 19.288457325151267 13.822430850411418
Sn 0.9812560458637865 0.0036546894994923663 12.518323696714601
Sn 15.445049817233665 11.544560684931406 18.668630651281404
Sn 15.024040867037503 1.118037621043636 -1.5941962194125516
Sn 14.515943217933184 14.05211027137426 17.31578634793191
Sn 2.142110361267332 18.340650625702256 17.013257889082826
Sn -2.440733513670723 17.496744402090492 1.821553386958481
Sn 12.863103146549676 15.885810750824525 15.114473286519658
Sn 16.886637816726534 0.5704788931158844 17.537228143298396
Sn 16.99310330325631 0.7425415336303284 0.8783511861471479
Sn 17.871176823718073 2.205605459918233 -1.6838393746622589
Sn -0.09137108375781701 18.71075593711171 3.0956325265180675
Sn 17.64331838658578 19.496021335859677 0.01451201612555962
Sn 14.742501123739638 -1.3497195861645304 0.17560787930834418
Sn -0.1677576658044551 19.136189182246518 0.17936947076432772
Sn 13.92094532660655 9.397157221294977E-4 17.38254184682537
