39
Energy = -137.69250754 eV
Sn 10.670981825703556 10.13352845824597 3.6576171505854043
Sn 8.590822296827477 7.477316676720331 3.2762625535228223
Sn 6.267401811515075 8.56038993895347 4.8748818235269065
Sn 13.484984171141404 9.014580112777825 4.583149374399103
Sn 6.974369255038849 11.346752783097328 5.889177666724404
Sn 12.299311134141652 11.602238704550231 5.796735839998251
Sn 9.626910853226226 9.754243634534337 6.544355247753856
Sn 4.808014973284614 9.437328547230178 7.4741650192973434
Sn 8.059120983783162 5.9002085738336 5.82593483817384
Sn 10.924225086261433 7.399272166551024 5.132433280646864
Sn 13.932713870734913 9.69309007440583 7.636558575179056
Sn 5.068433143945809 6.294108023662862 6.713378098904168
Sn 8.391933028554213 13.81822835475473 9.533538024110479
Sn 7.488274377523074 8.012389502791033 8.092254032189295
Sn 11.303602678300331 8.086979724295539 8.787666796195033
Sn 13.346200888415197 6.751919170995353 6.858485106635098
Sn 9.582024471314744 12.817088552594335 6.758759362858163
Sn 5.906404967614797 12.122100402883508 8.709628857344525
Sn 9.342324836619028 6.044669538623967 10.054716226738325
Sn 8.288349240433195 10.627704534008197 10.092030057248232
Sn 11.363259093388994 11.198770335357622 8.797260784576054
Sn 10.622905222908766 5.188467040848667 7.421214652054762
Sn 6.618701729774037 5.077444706851015 9.135490171419997
Sn 5.322956401307062 10.401389255532024 11.202693560590358
Sn 12.0777455654311 5.96453571537 11.717678906784736
Sn 4.873649838270675 7.446563290650801 9.821047196401901
Sn 13.588331177657055 8.581323253209357 10.925578227896008
Sn 10.55333115912997 8.6892885380127 12.237319108146052
Sn 7.423258249486704 7.785387004076929 11.57929494088978
Sn 6.341166857897988 13.422695447232073 11.937180026514083
Sn 8.69638424702629 15.337143739931076 12.12864515235824
Sn 9.985085358714842 12.480722607791387 11.941396406191888
Sn 10.820330869370599 6.441842032083918 14.474281840646086
Sn 7.599150379257643 10.90040381357707 13.26753418461702
Sn 12.58735679359244 10.85743588812089 12.868574377602545
Sn 13.363578250925737 7.929150816022892 13.98024455934844
Sn 8.292636714815844 8.292541967428221 14.579259525681215
Sn 11.123720846942792 9.573007629030409 15.237417584734626
Sn 8.358577032046362 13.50627912568738 14.424690543838704
