30
Energy = -104.87665554 eV
Sn 10.961741797599014 10.839777194869836 8.630478216392229
Sn 13.618368381692605 9.612434401503021 9.678554599749347
Sn 10.863559788894715 14.06412961814991 8.896109749290128
Sn 9.44090802963426 12.2536352642209 11.11585028176016
Sn 12.503116773906529 17.131297547432684 9.28352384556066
Sn 13.98930508174924 14.368697760933669 9.363012269708133
Sn 8.776133687413926 9.28495202892827 9.957884237399895
Sn 12.523425700607884 12.248142319342255 10.922604163747925
Sn 15.070755925385576 16.740323882386345 10.9633529430675
Sn 11.163337168023965 11.96362404339939 13.654494055014988
Sn 10.359744043628764 16.04486258383191 11.108118267975488
Sn 12.740791792582698 9.56825214772728 12.702789851591646
Sn 15.816835893974561 9.645057070961185 11.880611502870611
Sn 7.861924515847978 17.138768517107945 12.15526883087956
Sn 12.577784460020712 18.129453648416806 12.260509900805195
Sn 11.320159702052592 7.746403650986048 10.46640742263641
Sn 11.920675036676277 15.253366014387737 13.498335458469844
Sn 9.574405496260374 9.376704818777197 12.805882340190239
Sn 14.487738540619826 7.0187929125216915 13.482059630461414
Sn 14.524556405832067 14.119791959474114 12.524709833773583
Sn 16.509889909948253 12.088645631206003 13.47881121448757
Sn 8.807883060138096 15.131242863619985 14.116634768261669
Sn 17.23946452315421 8.40283388444346 14.229367470170281
Sn 14.509197233340439 16.744201782901833 14.087855459106514
Sn 10.75196110119165 16.03073873691488 16.1202416770731
Sn 15.41847679729511 7.600519450488354 16.390032723164808
Sn 11.30739987223581 6.802768422645447 13.343715000546602
Sn 14.861092662436041 10.289181794391984 15.089687913490266
Sn 12.548896694490898 8.301065201037773 15.72963395418806
Sn 9.95034958145392 18.060214505081298 14.063342076254719
