39
Energy = -137.7132435 eV
Sn 11.735254102774606 9.266609184281013 6.485661215242618
Sn 10.546106417761699 11.845501619585628 5.269364834390653
Sn 12.430908931911725 12.162910020057456 7.772455758631052
Sn 8.723972166340436 9.427057380346032 6.331201805247942
Sn 15.405849636666769 13.36635806629914 7.237844925072405
Sn 7.457442981662976 8.280380259463572 8.993001804144253
Sn 7.768833202055593 12.318788674220507 6.530509872166101
Sn 14.830673226971058 10.305968497714542 7.705303010375016
Sn 10.13566653799744 14.250801332211681 7.163826533837123
Sn 13.072495082425418 15.115565145865837 8.240002355341097
Sn 12.757521124843446 8.21949183434285 9.367450113087344
Sn 10.1705195050066 9.789049782694352 9.090906226522604
Sn 10.00849713663647 6.688084808780559 10.114294708751261
Sn 15.5162255300057 14.52052603225993 10.079462109075273
Sn 6.14648818356573 12.980583669290175 9.086577690986044
Sn 16.52086409893928 11.566247606455294 9.875185783686154
Sn 12.616502169605939 13.516763563150473 10.87874482132548
Sn 5.751607416601179 10.336508538852009 10.35652059789621
Sn 7.154570998284514 6.338680811797933 11.459347264463656
Sn 9.199871816211688 12.62056764924055 9.458509337747424
Sn 16.87906095312763 13.134540820346018 12.555373795962735
Sn 8.33043781883811 9.51553537970752 11.835826012501299
Sn 4.91208806866326 8.378333619401998 12.472228817251503
Sn 15.834367138588773 10.170220021675213 12.646402020730012
Sn 9.951273205479268 14.477615455906506 11.731366963728858
Sn 13.612573104369945 10.731445305499093 10.697309548751457
Sn 11.014390217399871 10.476666158674927 13.150628138137717
Sn 12.07181185280311 7.645553738353935 12.470655132838512
Sn 9.73399486198816 5.857479767562533 13.18116115518922
Sn 14.37469241995269 15.139643640166025 12.773268431045745
Sn 6.115504720168345 10.78437292867003 13.819840985795924
Sn 14.063780096848353 12.373313065984622 13.746065215007494
Sn 13.495268275142552 9.161397512944022 14.773434835911063
Sn 7.286532361536544 12.873699777167937 11.913311320931069
Sn 10.53570010211961 8.031782771588578 15.273732440949274
Sn 7.422200371690075 7.782065676328246 14.275650432836455
Sn 10.034589095647304 13.009892473177665 14.392810364255665
Sn 12.279259931068985 11.660383698497329 15.946108020429604
Sn 8.763117869108562 10.540126442246507 15.509168330565556
