33
Energy = -114.96151272 eV
Sn 12.70528830030962 15.708670713586002 13.51757367070886
Sn 14.220235960245768 13.493768466472353 14.907618781365949
Sn 14.14128947306316 12.63963147108188 7.473685701373581
Sn 8.42768680556057 10.676852348351982 12.378784999029365
Sn 11.186166017804322 17.65861518420235 11.693330902175587
Sn 16.343816465280312 10.928661508325831 9.118552674076117
Sn 12.461992546017694 9.571432720959505 14.601929526125438
Sn 15.096313310083495 9.089855236878432 12.770479164249208
Sn 16.501367643164237 11.758682176939994 12.021145331420184
Sn 10.595410144016242 8.306739541604381 11.155758711701496
Sn 8.142228314290389 17.014964600841058 12.063515290573019
Sn 17.1458683009126 13.574653043090539 14.250260523611471
Sn 11.09176100192064 11.318912596129538 10.797111993616781
Sn 10.400060962420715 13.558715142130172 13.683392538719682
Sn 9.927987049746957 10.958392499756386 15.247737783699343
Sn 13.362960274481406 11.670506944018765 12.700079023671858
Sn 8.318641624477975 9.535975964287577 9.3690566206463
Sn 9.983593965618608 16.602007745408127 14.523096096116312
Sn 8.43517550680561 13.961528525659872 11.297703617338604
Sn 9.694185987600555 8.09048572712436 14.081579935977196
Sn 14.493832830556864 13.27304358576432 10.315134272965853
Sn 15.674378871730534 15.198968997813061 12.362772290370287
Sn 13.920797867575308 7.119276108985811 14.7567765384318
Sn 13.14610959212046 10.240851047336344 8.841596515983047
Sn 11.084387807252115 13.229680656785906 8.359141509452925
Sn 13.08026659035694 6.92321613970651 11.83657541712629
Sn 9.600127910097711 16.10059392943099 9.43521432846784
Sn 8.192694219012802 12.441763495877767 8.733790236117699
Sn 8.847871130332909 6.69717005523615 9.334540069269138
Sn 7.610133985830647 7.730348708788286 11.907411708710947
Sn 15.029223276412875 8.253438660685664 9.893935646610847
Sn 7.601676191097093 14.729395255485057 14.050149637343042
Sn 11.658488170795385 14.596171127300208 10.982965497366274
