37
Energy = -127.92731088 eV
Sn 1.978802730334996 18.074544188472764 16.40120232985384
Sn 15.695420322025724 20.449147831549087 21.89829869329672
Sn -1.0858716303416167 18.282537500251664 16.17719437282044
Sn 2.537236914545629 15.914297616721678 18.35174193787617
Sn 19.33041576670699 15.709345193236087 18.159967540630163
Sn 18.01030240049073 13.512562129148424 16.709257706974405
Sn 14.173953982248236 16.4177374299676 17.08156259533959
Sn 20.419861921793828 1.8302604972868073 14.436201519267454
Sn -0.24455405000092417 15.373494641470453 16.98504216849588
Sn 13.644021434007227 19.240131210292827 16.49149656657658
Sn 0.7996637026176013 18.271484563941545 11.91277499278141
Sn 21.062342777610535 20.190754766833006 18.556427543136575
Sn 19.632561395833477 -0.30651505084189246 16.748490007322978
Sn 13.466975050102532 18.538655254863016 3.277419577114141
Sn 14.753680166288197 19.73106557839606 19.12354349282017
Sn 3.151685349005824 17.801714808927738 13.725802413996657
Sn 14.480267910264924 17.683722939385873 0.6472288350138503
Sn 13.235465679804403 20.732474509158532 1.211338873367585
Sn 12.861611048741384 18.826361177406415 21.152618492068132
Sn -0.4874664028251988 20.148323459690655 13.71698415926995
Sn 16.117700675076875 14.747038618347993 18.710081766458863
Sn 18.704811552883005 18.54939360031501 17.422205446285215
Sn 17.83667789060267 15.288885291068105 21.231825591153488
Sn 10.73664854740615 20.5575364032269 -0.4800409349772602
Sn 0.02795446118746826 17.589332631223257 19.165413674851
Sn 20.86350912246061 15.596824264499672 20.692230897865986
Sn 0.35822322836211884 16.319786848493877 14.079344238089599
Sn 16.35467966705561 18.374626186755865 15.566659686767329
Sn 16.76285369958124 17.70014188572846 19.627293645474047
Sn 17.40306589619868 17.973411943017293 -0.012445789345376032
Sn 16.320484322032236 15.47535615803936 15.405260205855626
Sn 19.689427528473754 18.38442050382704 20.58160594797011
Sn 21.93704777459227 0.3905585790184264 12.47207573177279
Sn 11.298593341481398 18.334306548443656 1.347161661361714
Sn 2.806402426713395 15.213620669193329 15.390138711014323
Sn -0.27031493239354365 -0.20234572768339887 15.505962613573702
Sn -3.0472219302687296 -1.0671801481330592 13.907338678475554
