38
Energy = -133.82672952 eV
Sn 8.629506566743807 15.144616807262578 15.791559846932719
Sn 11.060145177826659 15.880331298282133 13.951943472089482
Sn 13.290867837246573 14.39888244294336 12.036880806523799
Sn 8.227405915380912 15.33970542347691 12.702815901276436
Sn 11.485698630634634 13.870835113370276 16.28195148663558
Sn 15.977828063971826 13.839735628313665 10.043802474586823
Sn 8.956786370896232 12.072536438589665 16.429723931450447
Sn 13.26684045206681 12.220374114822416 14.101498614406829
Sn 10.496729737309813 16.072513541247982 10.323147938252415
Sn 16.155053606172956 13.60218492697542 13.07782847528955
Sn 13.058952302882492 14.895097301584928 9.078967057336877
Sn 10.076446497752793 13.033407822463039 13.676336785163585
Sn 12.800125975449632 9.188184828412872 14.693839098854847
Sn 7.959516574163134 14.896637824414091 8.852617003444646
Sn 14.412598520641453 11.408153432020205 11.133903774591326
Sn 9.727039593201228 9.307216329248098 15.144354559286919
Sn 16.147228774828132 10.542386206680224 13.650958690699456
Sn 7.093701664808045 12.794668655697862 14.062638768207885
Sn 10.48854497332796 15.119229363661452 7.198793956608241
Sn 7.490787120351731 12.4421150765617 10.6872686686662
Sn 10.913426053219982 10.333370545469387 12.419226038815085
Sn 18.02958280095803 11.628005773577371 11.448903978204271
Sn 10.466012589139119 12.838470668708792 10.153004945634065
Sn 8.78942246945041 12.298312429019028 7.359443162326045
Sn 11.963861975780382 12.508140131230011 7.446664301879278
Sn 7.927154460419724 9.655057689655942 12.450621694503697
Sn 16.477853990907345 9.096925277827328 10.901638136761685
Sn 16.34547050377118 11.094284926281452 8.681054006657675
Sn 11.163216955584023 6.554946962004618 14.343642786597973
Sn 15.156367618086666 7.627576521269924 13.217678654159519
Sn 8.18454852847367 6.992768404418132 14.09049628650674
Sn 8.53168350695187 9.862204787740627 9.27979595533351
Sn 12.518970562285743 7.748134861198642 11.834078325702071
Sn 10.579043914458397 9.98785955257401 6.1728775221015635
Sn 11.895335250830414 9.803062650033262 9.558592838940239
Sn 9.582858293920722 7.145366386280884 11.39703563709826
Sn 13.51943611773532 10.056872067412206 7.104034360552499
Sn 10.179036494680435 7.714907826137643 8.229117680293989
