32
Energy = -110.94731794 eV
Sn 18.688792544356975 17.745798099523693 15.12148584161699
Sn 16.660522509351342 11.794789846622336 14.217227459283933
Sn 12.93104509298116 10.635446390231497 17.515484549083723
Sn 9.071946280752092 12.344343711735352 13.757064327463585
Sn 12.426498251557105 9.646910881749507 11.554106002835551
Sn 12.896640973714439 14.762778228271587 11.600297372469436
Sn 15.174430539598013 12.515429512550492 16.73338812876281
Sn 13.108523560874074 9.714453295287985 14.687550745484275
Sn 15.418192802753099 9.498554575407903 12.803382918199265
Sn 18.093498226928922 18.525387003165886 12.303957918091294
Sn 9.944413776040617 11.254121782550154 16.41527949552806
Sn 10.845591473953853 8.372490939274488 16.263798505514043
Sn 16.934325497924366 19.794951822108356 17.303833977648925
Sn 18.65968583304282 17.34212874850545 18.145300233591584
Sn 18.234323843718776 15.374948917653594 12.603510862386154
Sn 13.611435998074871 16.80674378165132 14.260631316912827
Sn 9.998724882112684 13.972042156815217 11.147026271546022
Sn 10.00534906846507 9.322856374265884 13.62517356482028
Sn 18.242698804343412 20.82464582647864 14.660293060415952
Sn 12.542431000468593 12.786794380235019 15.446274206846065
Sn 12.040235056671111 12.11691491540653 9.837720669190166
Sn 19.98589932740311 19.76242742477462 16.933779374323542
Sn 15.80275456540431 16.960640806801347 16.50221764239727
Sn 10.90972193853708 14.817699995206729 14.073773947780644
Sn 16.517146325554883 14.725511121600983 18.323909553668074
Sn 13.90280634460306 12.145841345358214 12.695827625199476
Sn 15.646652580901762 14.66156616931313 14.02860401195088
Sn 18.174187346588603 14.826664654096195 15.734479169771486
Sn 15.671210360233687 19.148187957708057 14.166448893528646
Sn 15.606126867937721 16.80425363380681 11.777818839254422
Sn 9.459303527660708 10.860891541927877 10.851624544396499
Sn 7.2646336624384515 12.746383010202594 11.5389456463279
