45
Energy = -155.2970918 eV
Sn 18.275318596591546 2.328744567247533 18.73543408578839
Sn -0.2834653179398167 0.22213001794154605 15.587254167261397
Sn 15.402018316704982 14.549257852745471 21.71221101062437
Sn 0.17627928314062047 1.588754816464271 18.333772185816386
Sn 15.884303537359596 15.892151153832614 18.744001518095207
Sn 19.34906194459203 20.504241369885673 15.927137837249305
Sn -2.6651043177213105 13.843704409480669 1.966825395311811
Sn 2.0499389939190036 22.062057377536767 15.49616187334162
Sn 17.553101039535385 18.04965570689124 14.49606560244547
Sn 22.017068850703758 15.121597587813957 -0.7338996788514236
Sn 20.90024551344043 1.8624343038101023 16.689345170119083
Sn 15.424327071448875 1.8729890051783071 19.34284633701836
Sn 21.146551687319928 16.237029097310884 13.079449320644212
Sn 16.23590031026781 20.55796659010086 16.082223678665795
Sn 18.51264938843833 15.425126628577411 2.7823940869389063
Sn 12.927753455347792 16.381407742691934 -1.7601841678663224
Sn 16.547136878431463 1.991663038707384 16.301220304621456
Sn 20.158709472832857 13.111067716026252 13.297714631876662
Sn 18.25325678741886 15.39418426391249 12.982168921022234
Sn 21.749414152011695 22.024354681375566 17.421737637804007
Sn -2.6306213013060558 16.944458331413607 1.835584091520118
Sn 15.080740254565406 17.67530082111914 16.268623706970978
Sn -0.10926736317433351 15.592905574097035 1.7920860294857448
Sn 13.228789286006059 13.667352615591543 23.45797959209387
Sn 18.131339822497225 20.995935008298915 18.68892897807989
Sn 20.173810420614803 15.028404546066401 15.675152038182645
Sn 2.5115950040950668 1.1199841096891712 16.653322924139168
Sn 12.12046781364607 16.238433601616745 1.1023304166771413
Sn -1.1622500128388196 14.010485884348334 11.758901894148128
Sn 17.208373874069583 15.205619116828563 15.964733773636963
Sn 15.828721968581464 23.076468628542347 17.798867288108294
Sn 17.529742113804467 -0.20283496041735868 20.53473945559137
Sn 20.344804263358967 17.57855098582735 -1.2431373432127235
Sn 18.97786155504943 14.7527577485826 -0.28593663083316356
Sn 17.94007643710967 16.45905145132507 20.995308095208202
Sn 14.977870483263265 16.029635599633554 0.7589982791567931
Sn 20.397935378301998 0.19527432210253964 19.441550397667104
Sn 17.88670988824718 17.541431401212026 0.7306193040966384
Sn 22.730910287938205 14.011583491404233 14.787750833149472
Sn 15.500934817969629 17.92353557292434 -1.6126356330183724
Sn 18.126128043349475 17.795136334854327 17.57235321752103
Sn 0.9951308781724215 -1.243102520660953 18.226163972568138
Sn -2.211839294798415 3.0275516259302715 19.438545449242646
Sn 18.69652420376805 -0.16067346836088675 16.431151825616087
Sn 15.595309779073036 19.117332791800532 18.90554129499331
