46
Energy = -161.05077571 eV
Sn 24.19032210530807 14.51363582827356 17.529670132976907
Sn 22.736688736668636 15.38158739054075 -1.8548041727733526
Sn 0.5045987533701798 -2.704445828488064 19.02925821725454
Sn 12.682533801597678 1.4993775811526788 15.4697561501483
Sn 24.39414851893067 21.40596165163303 0.23242443475431637
Sn 17.793504284633688 16.452967117147804 21.07958027137091
Sn 21.408130668630406 22.78326067516116 16.934657695663574
Sn -0.415619223892819 21.447073398272916 21.785720497755037
Sn 12.867053203396267 -1.332381569958477 14.830976087405919
Sn -2.3647372741045607 -1.5702374641614456 20.083149247948654
Sn 21.750477204378893 16.209209716601574 18.139365566346203
Sn 22.153914384825296 12.532320053010698 21.67157189526678
Sn -1.0420422570438563 -0.4573117530219632 17.691585993714327
Sn 24.190746715258005 19.28851636976809 18.575573311089126
Sn 16.67826403189458 21.352004102828264 19.560800903534666
Sn 11.285555300624868 1.7724949428940548 18.160733138140646
Sn 21.98312790759127 19.66071949225943 16.523832469252433
Sn 18.902581930752365 20.425481146537233 17.5002779140018
Sn 11.64415361146196 22.09959886266828 17.56573779925922
Sn 24.37185469821541 18.670370976933082 -1.8723629963349953
Sn 22.280529346046947 18.95479098269569 0.3019693578981042
Sn 21.632209211304627 20.57463169908271 -2.25196781530039
Sn 20.499899863853862 14.906705397593342 20.852818403911936
Sn 1.899488021014103 20.520009669107047 -1.3381271538184978
Sn 13.330663589635094 17.717615353202902 18.4345463907182
Sn 18.85717808364969 17.41870066703434 18.303912250471505
Sn 15.066177490130633 22.1825571228176 16.95398545742147
Sn 16.0268449668987 16.118267107017278 18.542757274896253
Sn 23.915509159124174 14.947037700940186 20.441378247605066
Sn 13.55793407848387 20.643436619427995 19.3902357997252
Sn 10.390516895820936 -0.38777046743186755 16.33364997675638
Sn 21.524292081839842 13.098963922856694 18.532119120478733
Sn 15.598517243224846 18.57390621455868 20.542586661240158
Sn 16.075674786557087 19.00735381494156 17.430441339290905
Sn 19.04321924907483 19.37778341201733 20.816744574698536
Sn 22.269269522460046 17.784710373181433 20.69184432289563
Sn 0.9640453019126662 -1.244732405592858 -1.3615484055333362
Sn 21.504400397304156 21.966525372110162 0.49172567143047424
Sn 24.225979941193287 21.710789498008037 16.290617707802664
Sn -0.7120591169769319 12.103140124928077 19.485799399113642
Sn 13.337848579623364 -0.32862648148805906 17.798140877914644
Sn 21.490252320729322 20.71048315809041 19.330896452110483
Sn 22.89226879255916 23.68474370474189 -1.698590065236475
Sn 13.206552532636765 19.830209993276583 16.242063811749677
Sn 2.5180692657110657 -2.478065428942308 21.339970788662974
Sn 20.412002080189744 17.485135961698557 -1.8516170005272388
