43
Energy = -151.50420536 eV
Sn 8.495098529192754 8.01941458374126 15.661573518310126
Sn 10.861349031885169 10.029979348534534 15.393454043115023
Sn 11.30197303990536 6.93425589778575 15.81899592391499
Sn 7.630671897603932 11.06154994146401 15.475224781429286
Sn 10.064559395726587 7.307603640148082 12.972808304175931
Sn 6.992961758003322 8.710103459866001 13.05340416682678
Sn 13.560775370933397 12.443463501065938 14.326657481443663
Sn 10.228450977948041 12.96814244079571 15.289790884503443
Sn 13.28203366285144 6.431114992700789 13.508821933515511
Sn 13.723663399242449 9.011336528017974 15.269986185012247
Sn 16.21544755251214 13.994027403424703 15.181513296440954
Sn 9.539868601224548 11.331227900285134 12.793532958407544
Sn 13.489790271676279 15.376055148711018 15.326275496119527
Sn 7.8354950650328075 13.889780822676569 13.621503738154233
Sn 16.14172813992616 10.90461561466372 14.914059657043424
Sn 13.283573881756299 6.842087521440101 10.51711325850611
Sn 5.9610458318561035 11.6036489010294 12.952915963864244
Sn 12.270818301087106 9.511996599452319 12.133324213574094
Sn 8.32690791960116 9.721529855250788 10.608534713976047
Sn 10.516242554718488 7.802965781744649 9.834259672399822
Sn 15.286570918548238 8.64040306781079 12.551105469820383
Sn 7.489953883610367 11.88071899361067 8.672257596480414
Sn 12.718738287477143 12.769417930971391 11.331237227030991
Sn 15.916057711371426 12.116542859390693 12.09455329477492
Sn 11.467666433582165 15.094218017390668 12.901927998162966
Sn 10.548689576856093 8.598159874258286 6.949160555423005
Sn 14.69020148832541 9.969482586613923 9.678482147999851
Sn 9.659393533523666 13.30970367744921 10.18544982882883
Sn 13.62450680396956 17.486191610585163 12.99597811380468
Sn 8.412134737037883 15.965939530859696 11.229919930385378
Sn 11.742973237217441 10.687843531702132 8.879435287158268
Sn 15.208972763199874 15.009701353131339 12.60350235102217
Sn 13.451627805288215 8.388776330113485 7.023530899467114
Sn 6.407903229285179 13.717538127163362 10.70450596689175
Sn 15.607895549449937 7.352219495681578 8.72837217695134
Sn 11.07856495545958 17.725356045665542 11.392564223911714
Sn 14.878278637427032 13.053725629255284 9.132036042954322
Sn 13.293946006191812 15.865989898024191 10.162437352299076
Sn 9.139766856667348 13.615115251176867 6.90034503473097
Sn 13.984043014884492 11.317163997499845 6.590565283788166
Sn 11.000302648157607 11.444926384313401 5.777328009154656
Sn 10.16452563370377 16.07679210735413 8.77806158177392
Sn 12.147660394386872 13.676548107435448 7.721385800943277
