47
Energy = -165.6074462 eV
Sn 10.422225914727866 14.041454063636175 4.539593565080261
Sn 13.018702666869261 14.778387615665336 6.082617362547162
Sn 8.378012240783413 8.428030167044597 4.952134280634651
Sn 12.767560827583548 11.708952434863019 4.838959480862641
Sn 10.499056732778913 16.582737657363854 6.27005633805317
Sn 5.750543924597237 5.735751695921456 8.732634044289362
Sn 11.183467862731305 9.193890712682231 5.4859565982837495
Sn 8.041908541053552 14.652816704685836 6.352245924853173
Sn 8.116578122395822 6.338669535649097 7.031524404830707
Sn 10.555797690412255 13.506464230786564 7.540299141693675
Sn 13.671104204700807 8.138770449995748 6.727200634679879
Sn 12.171350450607143 15.671748654553909 8.944703121055815
Sn 15.03872695047364 10.879180298411702 6.885479845942032
Sn 14.159846270803813 12.931935581214072 8.964432757665714
Sn 7.584344578415745 9.593304693296448 7.581109967864382
Sn 12.114226219103958 10.722635375834741 7.815436838475676
Sn 9.08688445940253 15.821537305838005 9.030488769790267
Sn 9.342465875051774 4.84884199556184 9.234381665974999
Sn 6.988085639253938 4.019192367326539 10.845477796111739
Sn 8.96280814291006 11.51608222540874 9.334275021321382
Sn 12.45459172658584 7.1151532996314115 9.332654629089122
Sn 9.634868676353452 8.144916467105173 9.29618573639064
Sn 6.352683885767884 11.998143279198041 10.825672829063933
Sn 14.212636648244017 6.6263285416240745 11.898914491612459
Sn 12.48628857329056 13.642422356463177 11.645567833650123
Sn 8.749770533143955 13.941404101845475 11.518608952815377
Sn 7.672085070371639 5.57764877552679 13.690117499722229
Sn 7.633066322122368 6.982804392212529 11.128408785600325
Sn 15.012038208593264 11.771547053578646 11.75613083327434
Sn 12.114838539869849 10.81621653043041 10.79926340449407
Sn 8.777617129939253 10.24234499500303 12.058686449094878
Sn 10.52754054405894 5.482771408546005 12.933987884304672
Sn 11.4854481480192 8.239976002984559 12.275038665386141
Sn 14.73689479774673 9.33580060209926 9.761343708834643
Sn 6.130476983495121 13.486961763706653 13.509851565546922
Sn 11.950860951244692 4.420995941428165 10.54122880876001
Sn 5.59750769268943 8.53011986144668 9.495398695380624
Sn 6.085286166113072 10.372525239413909 13.723110704843716
Sn 13.256687286463283 12.001316451976642 14.390436655276236
Sn 8.682864152499382 14.749204187194616 14.449898332589779
Sn 11.437950501974855 9.453153458515514 15.232733782565731
Sn 4.122277309967571 10.209617139111273 11.44235664289708
Sn 10.343858184373136 12.252447160599198 13.55680488790853
Sn 12.705261315874766 6.589491545299937 14.673627104119424
Sn 8.044667117243257 11.953763929086222 15.52359790629981
Sn 8.386940759060003 8.483866188542393 14.430614097661438
Sn 14.234499758509928 9.151879859963683 13.603955851080535
