43
Energy = -151.58610273 eV
Sn 13.007815766105171 6.683534027494564 7.396992158694158
Sn 12.878370114937038 14.204699173927102 11.659630239491225
Sn 7.614735980673589 11.245259998773266 7.775946222250926
Sn 6.956961543482229 8.736806259965427 3.9808668772327387
Sn 14.2968986415785 9.588281401414196 12.940968500099068
Sn 3.889961115876755 8.18937474437559 9.833990204603683
Sn 8.757784219848801 6.172851964271884 4.936594239139614
Sn 5.0712475120455816 8.275542430269107 12.737650947600612
Sn 13.465076121172695 9.612043106377559 9.05903083330949
Sn 13.608627888919605 7.138762840379356 10.89637640500031
Sn 9.450122711376553 5.483318007388582 12.613561369216994
Sn 15.053485185095528 11.973879947187061 11.065951624046901
Sn 11.823772534992454 6.804710408167261 4.45614085837602
Sn 12.909636514952435 12.920863814428055 8.851851176986681
Sn 5.212045171755477 9.726755634364459 6.305097512241171
Sn 5.579084698534953 10.612423041787398 10.542570681008232
Sn 4.8475895504753925 12.690649785006258 7.24176487210407
Sn 13.872362140030594 12.48053249617127 14.038538875648085
Sn 9.001028500816386 12.003252448200607 10.993944459356115
Sn 6.605201986384443 13.524964033266542 9.677282719095986
Sn 10.578029700639584 10.79862036784544 8.635084446066644
Sn 12.081134242936027 11.206968680895043 11.614563820049893
Sn 8.022772468910029 5.409851852696793 8.016310829083698
Sn 9.774672746924933 12.477243918506177 5.930121015655357
Sn 7.933476083358777 7.83147338211795 11.546156119175272
Sn 9.836923704595362 14.05408057967885 8.71667074982
Sn 6.6778125000925685 5.76556642632878 13.797395136322535
Sn 10.924205734434743 4.578534430723919 6.578075183996692
Sn 5.919593634422991 6.710875649292211 6.154749478328816
Sn 7.371689414327521 10.409119040119613 13.064445875682205
Sn 9.859378004451447 9.219966533839736 4.779630759922899
Sn 8.80366360256712 7.934665474330546 14.5630566584659
Sn 10.056261386884401 7.831317631195223 7.4554372425688635
Sn 7.443622473817571 14.462014485196752 6.827836668630628
Sn 10.62624560512315 13.012283424265247 13.519237090038546
Sn 11.577759363337924 10.277340389739637 14.586450589765013
Sn 11.771555341685671 7.260127216974273 13.569416290024513
Sn 10.81320530761256 8.446411561974886 10.876891821097601
Sn 10.794981686838964 5.670200332962856 9.60876555643449
Sn 12.744094744753053 9.357347554274359 5.907576535098214
Sn 6.805052898408293 8.297807475359093 8.700022698252857
Sn 6.886933558840571 11.981503952845067 4.831696256618338
Sn 5.755141406646232 5.898187586286573 10.675671914063475
