48
Energy = -169.97934885 eV
Sn 13.053798767101302 11.49697772872166 4.7246960941233604
Sn 8.232183207017616 9.736636512923388 4.164520882935481
Sn 5.415308954373993 10.34207590626346 5.584171329157552
Sn 12.137827038521577 8.83591555104437 5.6466638361186865
Sn 6.535149907561815 7.409078731156069 5.252820888544319
Sn 7.806813010204209 12.435166169641544 5.547490008870368
Sn 9.594448899166137 7.224460979025944 5.677359211052867
Sn 14.852167881944043 11.049665631275795 7.04566003064022
Sn 14.153895125220904 6.588577786698242 6.486249150962422
Sn 13.000404567758466 13.859137057985093 7.017013171822603
Sn 10.720591826278978 11.687393489208642 6.738221493106379
Sn 11.637578809805593 5.156076962119177 7.474667888926345
Sn 8.24383734538417 9.855640256631498 7.278000144055478
Sn 5.699096741483774 8.480363965686456 8.144826822698992
Sn 6.02046777814513 12.427993680565601 7.969191131592868
Sn 5.467333043172215 5.649466148786396 10.858523819313232
Sn 15.293544140976481 13.325212706940997 9.012549326691747
Sn 6.610993003407567 5.515777055900363 7.944335046345438
Sn 12.347192376600706 8.237370218645237 8.59647708841989
Sn 15.455382776820496 8.34284821640316 8.683955705668634
Sn 12.620526362944148 11.486003351042049 9.075144872500648
Sn 8.967334372239561 13.30937885189437 8.944663337725109
Sn 9.091765381301379 7.03450591386913 8.643350156654162
Sn 14.020385320881969 5.624842762626237 9.467831028588167
Sn 9.281397192072689 4.0254867849411236 9.262985019676314
Sn 4.570548835371341 10.563767427513799 10.087214859745924
Sn 7.466781552468291 11.174886776138038 10.623867325629462
Sn 9.947146653321955 9.367249048059277 10.34367726940067
Sn 12.285239946242859 14.587593232020193 9.957076136352232
Sn 4.949816742972713 8.254254546980912 12.254781816802948
Sn 13.940230324060133 8.748266921210927 11.34676554652747
Sn 11.20164053737421 5.878064912837171 10.744972033828546
Sn 10.761262511887038 12.217943124589459 11.511841527317841
Sn 9.687005118267125 15.138819240760625 12.043148423038632
Sn 6.843223928094019 14.35113343505174 10.975180880995268
Sn 14.412000843493145 11.749411623045596 11.514613089758807
Sn 8.118813161201388 4.451370193094679 12.137870350142043
Sn 7.824172843518198 7.492504789048309 11.795378213848487
Sn 8.074614273519078 11.201720712166349 13.636993523744767
Sn 12.87319515103193 14.106916017685508 12.972617468280388
Sn 5.396770619425947 12.319257176379695 12.698880480147881
Sn 11.254164830472668 8.273414217432007 12.79791050380832
Sn 10.221617941399023 13.19820584698106 14.608872205654961
Sn 5.886501543688657 5.605039614330291 13.915842388062794
Sn 7.39270870115548 14.251867342313469 14.058712159209573
Sn 12.466897959958349 11.088599990042468 13.813983067873846
Sn 9.175006120444928 6.33474372814308 14.305511303987377
Sn 6.950933330448603 8.468634964380504 14.572639239850938
