43
Energy = -151.95297195 eV
Sn 5.390056816576742 6.3266683947721205 10.852451612332933
Sn 12.259217739796018 7.465855859160314 13.99333871738155
Sn 10.996442905449868 8.176380049422184 10.971380413665354
Sn 11.726665147553403 5.553796771255924 9.519950606288198
Sn 13.905516362753715 7.920478875943026 8.39843597001467
Sn 12.522897779294746 13.673579907652917 13.087568877776496
Sn 4.113174704369619 9.188808624911484 10.6440550587035
Sn 10.543357203807666 11.363772685439939 12.035282692899848
Sn 9.179874686053793 14.65342640615215 9.000214566571229
Sn 6.393043808604434 8.831924700619135 13.02523114171598
Sn 7.163800263464127 10.226721716130244 10.460362002051642
Sn 10.703347674187752 8.845188952410666 7.9979240208029925
Sn 8.0136031974878 10.004272300512477 6.638289785237787
Sn 14.401070771906037 10.804230786338888 6.304472932944053
Sn 7.847078651438567 4.639646113409315 10.130336973854565
Sn 5.4896108525848595 4.842390223933494 8.026174312130852
Sn 11.896312501676983 6.478042936803385 6.412358233617634
Sn 7.483479681313635 5.785893434982163 13.083946635628202
Sn 9.399254290067361 8.216536722484976 13.432919875762341
Sn 9.553102058825813 11.140439697947558 4.146596497356415
Sn 13.630329063780705 9.710602466662465 11.763587344854137
Sn 11.892922707050625 13.58213883157418 10.105032089696836
Sn 7.793600209620418 7.543014693691548 8.966161377925816
Sn 14.549882758189604 7.904084928761864 5.47950281600791
Sn 13.959863832929393 6.797275999641032 11.363017753712722
Sn 12.98509721962666 10.801218968707062 9.043858624510467
Sn 10.487931016961845 5.38473448531211 12.47106848063446
Sn 11.896797359423967 9.389418119511094 5.067901950512805
Sn 4.799447321608848 7.808104559492974 8.001639083937993
Sn 11.668368517781937 12.09508547525838 6.434824011448739
Sn 5.728615865225846 12.016301382486708 6.802789804005315
Sn 8.429429909501836 13.174147910353444 6.230969147893426
Sn 7.018793211577854 13.482526966376431 10.750199302392282
Sn 10.136907503445036 12.636500930734831 14.914497792156684
Sn 7.658591591896239 8.679538595684571 3.9400633104675773
Sn 9.270910311882623 5.14668484857393 7.513746628571169
Sn 9.662642774473873 14.544099993671626 12.575942419848737
Sn 7.631407008914397 11.898866325443828 13.22636133078514
Sn 5.124806473878427 9.494401780501835 5.4109738872349755
Sn 9.479016761986609 11.658850138476936 9.018415498203067
Sn 4.783277241174377 11.886528963771044 9.585002450294077
Sn 7.071803271186497 6.634611159921106 6.081356281492052
Sn 12.602292041669626 10.83684838610667 14.335438757675563
