46
Energy = -162.69316149 eV
Sn 14.316320246574229 11.273480984907911 8.814272815959097
Sn 11.272698478110621 12.043475372429857 8.760415645780363
Sn 8.312594592742578 7.209632227079144 9.815901756863306
Sn 15.641788660825553 11.393767499932707 11.87303658197696
Sn 12.692315880497663 8.5538130539134 8.64858800134674
Sn 13.455155682059639 6.327256844986187 6.50312886009117
Sn 7.605046027380762 9.486749272652517 15.784625706582602
Sn 11.504950093266038 13.925883000668183 13.252727114332162
Sn 8.947980510766161 10.375198672890289 12.895794815562812
Sn 14.960333105376675 10.620370279255976 14.850442593007326
Sn 11.108817001751763 8.098232429434605 12.643046480027989
Sn 8.326626539361174 7.263456857360381 13.877160194863725
Sn 5.218176885067877 12.452254675057315 10.613689187115495
Sn 5.281975707708569 12.739398210292457 7.379755365632408
Sn 6.8642609303815565 14.64645568279077 9.228700249720472
Sn 10.195250377712894 9.49213128942598 10.028918355859538
Sn 12.447912973989299 12.18649286396728 15.749106268587871
Sn 10.653587353623571 10.431372651062397 5.9825922067368555
Sn 10.758458696528136 9.481158351431205 15.362282276029386
Sn 14.162941972618418 8.585984222959642 12.760267477460065
Sn 13.46549259843811 9.370203593663623 5.861690525528532
Sn 14.051732044176045 5.964853135645563 9.400195032181962
Sn 6.545459832023228 7.455004680857738 7.149679801973698
Sn 8.35939963142679 11.546240496498191 4.35970376261675
Sn 14.67484082610416 13.57698837481408 13.898082769031078
Sn 11.369858715776687 7.545040739164618 4.235764940551716
Sn 9.625156678963128 7.762745981790568 6.854325202617448
Sn 5.975970462339312 11.154124163054574 13.544629694885009
Sn 8.91570998343755 8.89264683590353 2.9871229432788313
Sn 8.011431492337751 6.478307352290653 4.586967880589017
Sn 10.817074211039047 4.953905331710575 5.759645017558815
Sn 10.991965101031235 5.763197866365307 8.700991045417773
Sn 9.344269403634867 12.270705874922426 15.364516517972191
Sn 8.169553398025613 11.848002521218547 9.949295333731664
Sn 15.435248158782384 8.619255269821348 10.044994147309055
Sn 6.277500456747648 9.192724648917782 4.455541175677564
Sn 7.332962758633108 10.43796333105442 7.07752987044287
Sn 10.041587258659279 14.370199235410697 10.357317529387414
Sn 12.53627854339369 11.164372217102718 12.629772049987867
Sn 6.305948146926743 6.175947888944372 12.010448893510207
Sn 8.683434206956589 13.25738525260115 7.20954705237943
Sn 5.26681469152517 8.130077207923486 14.019449730383934
Sn 8.193927377782579 13.42845828558935 12.641012833360445
Sn 4.711094986448247 10.065711908510105 8.737535455430864
Sn 6.295901421363109 9.17151776088972 11.220288752294636
Sn 13.716588380509243 13.66024808566166 10.961892571190447
