48
Energy = -169.32460637 eV
Sn 9.920701481413863 9.253289068571819 7.6088297718599875
Sn 12.543051243110064 10.007236303102726 6.073479262147649
Sn 10.460711356974999 12.290890757131297 6.506515682475285
Sn 13.259663543992025 13.486126331672322 5.961692015762775
Sn 11.804814816445717 6.8478470755773895 6.84523366772507
Sn 11.209884171144328 15.425319271329526 7.030300851673823
Sn 10.070701621311454 9.513385884164784 10.60163019728873
Sn 15.416266251394982 9.781000647470377 7.529915481249892
Sn 7.505303859172542 12.404696264016485 7.694222548190762
Sn 8.341656003690288 15.255837164494075 8.36993010219448
Sn 9.826732058380264 6.509843675558232 9.364983398110128
Sn 12.866362753690906 11.188999461642288 8.851526480737173
Sn 14.768624653290578 6.409952238805572 7.85192302151662
Sn 15.674208973756258 12.801557247310228 7.646215428240374
Sn 12.22870592966366 4.649835597895224 8.969718027137883
Sn 13.243918686878738 14.261953025022624 8.989682291390084
Sn 10.044922860916104 12.639626266415346 9.531417604810821
Sn 10.659344429827705 15.460980711739042 10.378912793779646
Sn 7.207197655827221 8.569768499410978 9.721854251274022
Sn 5.3915963361280514 14.234394273395012 9.234103158495824
Sn 6.530706776843841 7.140998179421551 12.244039094551646
Sn 12.843260634609898 7.855010199209669 9.800468805391658
Sn 16.123120514801563 7.862230808528618 10.401372510277781
Sn 15.953852453748715 11.038641626672364 10.305124525671532
Sn 7.555578447943584 11.49751395812605 10.993356025730728
Sn 12.790808193204882 14.15686160037065 12.700693453218303
Sn 7.233321308405769 14.350741103112806 11.567560851801717
Sn 4.878985442739127 9.566773936944431 11.873121577623431
Sn 4.560919478804926 12.724542875657487 11.989088780742957
Sn 14.59141132953606 5.169440251279507 10.882992688522593
Sn 5.157851787293382 10.957581700153801 9.021714089642716
Sn 15.412138034159975 13.943286417519353 11.097845772243081
Sn 11.700789906895242 5.732072532206117 11.890136700009235
Sn 7.812500170089946 9.605136250559863 13.319098603397288
Sn 13.405143184899906 11.145342121393792 12.072472940684634
Sn 10.41503063761729 12.293373004320197 13.121783751204507
Sn 15.376681965617436 12.528372662220042 14.094495120929889
Sn 11.537331043046366 8.729535159381085 13.138115530907942
Sn 9.346361677120978 15.150488705650993 13.501454424043894
Sn 16.426506648267377 9.69573705793403 13.032816590190695
Sn 4.9639255175754124 10.968257551463092 14.554485148739808
Sn 6.4477214388686415 13.757250403340127 14.597230848726982
Sn 12.6465165028615 13.010117887646436 15.540566352699457
Sn 14.416720519949594 7.29744462632622 13.109596127687704
Sn 7.586529155370406 11.0881247659494 15.991124781936687
Sn 10.764673287644442 10.481466130108299 15.548118217434906
Sn 13.996729808373473 10.042746119971898 15.099066807823494
Sn 9.371599990902594 13.509457144009893 16.041058386305735
