41
Energy = -144.42939807 eV
Sn 9.636703835666376 14.759124495643116 9.311972973075909
Sn 7.386537380024487 10.751061397931132 8.457860755117059
Sn 8.528094569691373 8.147462253825934 7.463615952849127
Sn 9.72984972643756 11.721791172123922 6.773338581069136
Sn 6.942771545136875 13.488860468525644 9.732153678238253
Sn 11.180979893748399 8.996670423033732 6.423611217071165
Sn 13.059617455684993 11.443712611284631 6.8834212944533775
Sn 11.528000064536801 14.171004329118896 7.124826169723289
Sn 14.503730194040264 14.208400317589296 8.179933423152058
Sn 11.120920760717064 15.110564236618329 11.92243306791604
Sn 8.239407229486874 7.975313341239538 10.43331111368933
Sn 9.200732508825995 12.39436695819378 11.682879351503711
Sn 6.534667797409037 10.612436557041395 11.476939210456525
Sn 6.101370596766835 13.5397755310996 12.620880591551975
Sn 13.597368494505908 8.772608173044693 8.59471048771289
Sn 10.489354331414365 10.250261824533276 9.417232493003505
Sn 11.010256547571501 7.244838981927938 9.42049817673246
Sn 15.548597315003283 11.390790624150004 8.903463252130285
Sn 12.398055457400595 12.923343880917086 9.938971596349004
Sn 14.250823088919034 15.60305773345117 10.894942265829505
Sn 16.734221518474254 13.611120469619724 10.791737193938335
Sn 12.274240673620843 13.269747495098725 13.998215795636945
Sn 15.791491370517553 8.916630762872789 10.773043670516673
Sn 13.090460973137345 16.774047924635024 13.593780345449787
Sn 15.800626379497965 14.814754208814017 13.548881953946218
Sn 14.528877689334749 11.72088009388856 12.013160388513926
Sn 8.693991812493385 14.739791602852941 13.81007926409476
Sn 13.152472379562818 7.876259335440238 11.864042226390366
Sn 11.260754711371204 10.028798683718524 13.09574975776037
Sn 11.079472654649127 15.75721658593592 15.729818373967799
Sn 7.758360629050939 11.715121063810164 14.48035005499961
Sn 17.352381259816877 12.134695311250166 13.371859042296329
Sn 15.699468195920979 9.434869270958394 13.755732910976558
Sn 13.972791203420355 15.001527425564886 16.05921007318917
Sn 8.267572797644846 8.771877007834293 13.39829249650763
Sn 15.150205849408465 12.237536857366749 15.481699890825283
Sn 9.989167562077318 12.983389369281179 16.17433737712821
Sn 13.097611868265565 8.082865514890276 15.056502386288637
Sn 12.317197259490273 10.894746368056943 16.08890168826019
Sn 10.113833122695974 8.83968636268729 15.76686277614457
Sn 10.8045763011597 6.80270463429514 13.407905261864077
