48
Energy = -169.12560521 eV
Sn 8.49043290343253 10.224285649593872 4.275550900533922
Sn 11.483274349352783 10.648521063501557 4.978538307673927
Sn 13.514921407356239 15.515970097453987 6.957843614208908
Sn 9.646871674240604 9.830031667370426 7.269268653919423
Sn 9.372439244650051 12.826275590941757 6.1971192068345315
Sn 15.35568698179693 13.176814344498098 7.3759031665047905
Sn 7.529576374458713 7.90224846406992 6.003146711970064
Sn 6.649227898736064 11.199805169651722 6.570953707674712
Sn 10.126454355406485 6.522699365160805 6.996810042465768
Sn 5.0898882608130345 8.904054523882126 7.597298531164887
Sn 12.44037341913539 8.378924573667812 6.951170518025181
Sn 12.42159606321376 12.46413086600262 7.2506122567161295
Sn 10.91792192629881 14.896990476809503 8.439903067190844
Sn 14.097319929961557 15.031330555128491 9.819036246307322
Sn 7.524729714022367 9.423971600626105 9.564700104549441
Sn 16.558035269848375 14.05714486837396 11.23899658454493
Sn 7.750451375280206 6.2132469898098135 9.235628508249409
Sn 10.39122001925003 4.518993785773729 9.36731005426662
Sn 8.106033545372249 12.669353798501326 9.14180687452604
Sn 14.534230651682902 11.775068131586742 9.860670344891776
Sn 4.621579070802202 8.987477677717738 10.678542721873516
Sn 5.149427040374259 11.876715147601663 9.775534186478719
Sn 10.516755484836274 7.7340370226689945 9.813945383445397
Sn 11.366349960396914 11.130483627981361 9.802807547204562
Sn 16.593648757286854 13.673380996016535 14.223219449473346
Sn 16.781491776300353 11.093145183708046 12.09022777375847
Sn 13.596765058374741 8.640873564550223 9.957611617407501
Sn 8.714552858319967 15.279584863853685 10.652255190781219
Sn 12.437467609374789 6.018547189301023 11.430284392199603
Sn 6.725658536676684 7.151619964779866 12.080001615885816
Sn 14.09845280082599 12.485798903467591 13.00283238521654
Sn 11.748178420518336 13.70712134698173 11.18292220902057
Sn 12.198759034275012 9.824209135244251 12.63895655675641
Sn 6.199491929933078 13.80715198133969 11.960767769711211
Sn 8.714135701219275 11.951601109638101 12.158710070168034
Sn 9.22291680087988 8.989323871241766 12.411672234289556
Sn 13.973479075696387 12.704783143755254 16.04024804460156
Sn 5.812954090602221 10.934750370965052 12.869225458146229
Sn 16.198124994900272 10.766899160543597 15.165637318130363
Sn 9.373582720074962 5.477038958571179 12.087705666172898
Sn 11.328900268116648 7.2207286249329785 14.114153673778857
Sn 9.935882871144361 14.312911845661777 13.534022210081039
Sn 14.997734655804075 8.69046529140048 13.067775397394442
Sn 8.512828387671163 10.402204398883065 15.109497372661
Sn 13.328922756884017 9.566695187221203 15.56921815025333
Sn 7.29729202177734 13.171363267974385 14.798946740274586
Sn 11.182210041409649 11.753072547027553 14.768684012058038
Sn 8.277208814708215 7.37359093805792 14.827764354050878
