45
Energy = -159.06942449 eV
Sn 14.419740345648961 13.489829223784653 8.80587737499082
Sn 13.91088011717605 10.592049378424411 7.452234854655756
Sn 11.158332052670051 12.799629818543723 7.015783851827755
Sn 10.846666641261312 9.641821172811616 7.183979894329011
Sn 16.417199795293566 11.30591305608363 9.30412966618481
Sn 15.904775199902849 8.475736123129526 8.378180613784583
Sn 12.91655288236986 8.267806027635414 9.134464033104921
Sn 15.448055646061967 6.957880145203515 11.07726394832581
Sn 15.659656807652851 14.840321900939063 11.282771925831005
Sn 16.742513415376337 9.78208187147796 11.921841673409382
Sn 11.83206314486142 12.558939141174218 10.319549335893267
Sn 14.560418367394949 11.964084147431816 11.833820744435775
Sn 8.529570178075765 14.436525983598695 7.223376528755597
Sn 12.620139501576771 5.89449798988661 10.86495305083444
Sn 10.098393046011198 10.397509423780884 12.258268216315283
Sn 9.528681269198861 8.308556433097708 9.697446861388212
Sn 9.316230393540337 11.408989975053403 9.173028683646596
Sn 14.295638714416034 17.657775800689606 11.641807038688244
Sn 10.910320926930396 15.199901582850949 9.055404064280628
Sn 13.084595435430222 8.963983955850939 12.115962203380999
Sn 10.414770294107866 7.168866840059645 12.537811196381794
Sn 15.310175804139272 7.773376312913743 13.962081421211616
Sn 11.26675264129608 17.50204587143743 11.246206484071964
Sn 7.191888980642985 9.378875431481287 11.222020946035256
Sn 9.496658272251013 13.85826457057836 11.915748663911558
Sn 12.31950168277267 11.992338292345895 14.163771293185123
Sn 6.791446970075829 12.962637809190774 9.205346018166564
Sn 12.403446978718058 7.43000254238382 14.84696703257104
Sn 15.113929325309496 16.104866220509656 14.380925705641138
Sn 10.552839392808009 9.803979764868998 15.662712499631391
Sn 16.727961906747534 13.335465734330528 13.676952602405773
Sn 12.680829723345925 15.049889856287278 12.479756537097412
Sn 7.990653155852523 15.80774612011314 9.902836829680721
Sn 5.173901086363024 11.542567895513402 11.258795206642983
Sn 16.592323037570072 10.437330176046498 14.918572795841172
Sn 8.113429401860243 8.670625098749825 14.055289588336283
Sn 12.652836155326298 17.98501401108664 14.131997984249455
Sn 14.675712333062389 12.797458409592501 16.011408634318578
Sn 13.621281348196074 9.896566323465184 16.193971657380015
Sn 7.453590803471406 11.734917787676329 13.41959863666205
Sn 11.811682645747794 12.112040956078863 17.4263501992115
Sn 6.404337474669889 14.342129828897058 12.043289620316282
Sn 9.773990028981562 13.182411466529063 15.28487619424403
Sn 10.022103984795065 16.24245322686159 13.875540318382184
Sn 12.42188894574589 15.122241223610057 15.621595844059788
