41
Energy = -144.39700083 eV
Sn 9.691780325502974 14.629151741250116 7.919640286127969
Sn 15.712009819886426 12.25282039218531 7.521998433024368
Sn 15.931611331945753 14.976952421748786 9.10751295146573
Sn 18.44619919147722 13.20276493286079 8.67007056631739
Sn 12.232425170999633 12.685537318470697 7.638490981316293
Sn 12.652221148006742 15.27967252769869 9.304489368597833
Sn 9.276886773842085 11.880577955240863 6.879952739819156
Sn 8.098060042734529 15.083141140483793 10.596759379093381
Sn 14.713066382685469 9.798933380661177 8.867246216111054
Sn 11.522780075084446 9.750215117568226 8.36459083589248
Sn 14.052521405166726 12.689174382506554 10.269481507025674
Sn 17.525415096559797 10.663040673358115 9.808198721280077
Sn 14.707746379400515 15.527108975127865 11.82409788545914
Sn 8.366324659223565 9.68651830522344 8.824498139634935
Sn 17.290506786072125 13.387192832984702 11.56636544444157
Sn 10.14403809267808 12.358288054125683 10.06468390332237
Sn 10.908386829354544 15.986581594217071 11.689346091859662
Sn 7.148459083808652 12.495179295967855 9.11243414990082
Sn 13.25528461986858 7.393388150866763 12.888331207763672
Sn 9.275970917993853 16.588841531890182 14.303468876509838
Sn 15.783356229729112 8.224921796502612 11.199074623729308
Sn 12.645938112540703 16.428817744767763 14.149452033986087
Sn 12.066840372847984 9.790201427816005 11.40403751886048
Sn 9.072500376267374 13.76005080042294 13.111905745979888
Sn 12.132755347659641 13.344361045208867 13.150786577191154
Sn 15.517703945488234 10.912786897162093 12.297933067110742
Sn 10.565089699278438 6.950686925262771 11.177148193233055
Sn 15.120312838294845 13.486420723081249 14.03026914033023
Sn 9.353492172845588 9.661173994774979 12.487062266084688
Sn 6.575320348958346 10.312509920874609 11.367376360658213
Sn 7.448992155233222 7.4802857831396246 11.252129398600474
Sn 11.180475831880809 5.237410490559806 13.594161217908239
Sn 11.098268855823138 16.592010087695794 16.737965974006023
Sn 12.95110994647599 10.216930278315758 14.267891425611971
Sn 9.829242494575642 13.974388950597586 16.058078556981926
Sn 12.96406292781851 14.108936552265709 16.229728157792948
Sn 11.582222157329603 7.614177640127851 15.48497375684819
Sn 11.40440487369658 11.4318670003394 16.596409606871497
Sn 7.4253460276375485 11.47639797860436 14.010096525103236
Sn 8.737192173656343 6.931682149355253 13.968593520576093
Sn 9.225358564314174 9.555314259338227 15.590629714288964
