43
Energy = -151.42341816 eV
Sn 10.807050293938756 9.210601579981628 5.408732221231549
Sn 7.693000595786468 8.677401794476008 3.9891139900752846
Sn 8.60739828365385 11.186741908956611 5.450186653237934
Sn 9.414438661398243 13.799297468469517 6.724611825392671
Sn 13.759339079304173 10.102181795961446 5.957493885459782
Sn 9.765162757223095 6.475198009402353 4.644704645726879
Sn 8.580446574795918 8.080454733494681 7.008316780372175
Sn 8.039249527413954 5.083144658617144 7.222285618598136
Sn 12.503060423561829 12.816470917126788 7.102055615850466
Sn 5.905299500119427 9.610678733455275 6.166255826901661
Sn 6.141578725671721 12.332392444284487 7.882798973402349
Sn 9.172231162042038 11.600843690851312 8.87774685494635
Sn 11.780132604619789 9.775920091286585 8.436132680673127
Sn 11.136832369833098 4.486547207006399 6.722971437666895
Sn 4.517418933273105 8.154464365318095 8.51309727418773
Sn 11.44698119777809 15.05002241968509 8.949880249230947
Sn 14.546885868434318 8.353831983705422 8.383960390050916
Sn 12.157092388382127 6.520696245761078 8.672018510948794
Sn 15.143591226177206 11.517961129836708 8.36505803050967
Sn 8.39229073288102 5.8431519323487935 10.252368810656616
Sn 14.659082938621607 14.607650641994299 8.531116667865483
Sn 12.163760574065348 12.404781992711595 10.322257751172105
Sn 4.0482562424987645 10.715027291818947 10.040888560630526
Sn 4.040152484550686 7.826485834474913 11.748863047506466
Sn 8.023864250326117 14.384749900839722 9.453227756567856
Sn 9.576528825756396 3.26359474661317 9.267003319978974
Sn 5.591540242496502 5.502468841655208 9.31848778111929
Sn 7.110635345759658 9.420793576987672 9.321734815907833
Sn 10.16483647336511 8.092164559885202 10.438269846388899
Sn 13.748317943179595 9.901598834293951 10.940512188361728
Sn 12.600234704501842 3.6096007649510344 9.300943405588376
Sn 15.255680365567875 12.743546819663818 11.095981072050462
Sn 9.489416724270198 12.179260648158657 11.907663568067473
Sn 13.326798009957397 15.054736079471597 11.297877033661367
Sn 11.253806162254508 5.296012528916155 11.399224971474906
Sn 6.284055384103417 5.788753063938193 12.586171052637518
Sn 7.029583881108002 8.758219948162482 12.227101801158465
Sn 4.659456078440156 10.551492938878976 13.263774767991077
Sn 6.597931196910176 12.211394972618706 11.041437923535355
Sn 9.990471137892401 9.34345370214815 13.185319639227448
Sn 7.279824159242523 10.267973202828943 14.814196216712741
Sn 8.177966149881096 7.220293915322178 14.658702431308374
Sn 5.191065559526966 7.950687824205768 14.88219984653263
