46
Energy = -162.24625375 eV
Sn 9.93088393297641 11.006370996412592 5.690265627080225
Sn 12.174771693344537 8.946439293373226 5.074559879874032
Sn 9.822040479195287 6.854540198715217 5.4988649569644314
Sn 7.561753145287261 9.183399418300915 6.5137664603537155
Sn 13.170554832151263 11.972447290945025 5.727171375195085
Sn 13.154741445198523 6.19964532592324 6.470834273642777
Sn 6.921552308127856 12.448507065499266 6.8808771917452445
Sn 7.286658084722717 5.478892808517121 6.83989187810712
Sn 10.813832611507596 13.756564615012019 6.998998728829085
Sn 11.126126473364097 8.407335220608612 8.028443652679272
Sn 14.105144047490949 9.140985063688564 7.571251040423252
Sn 4.6653916760228835 10.417888284506484 6.473233101237623
Sn 10.105262707391658 5.483726022256456 8.274205648852302
Sn 13.712880174814599 14.58275468123028 7.596324900038598
Sn 11.193412608504719 3.9003360285562674 6.030928893119047
Sn 7.759487011586006 8.421165212231763 9.462067286980346
Sn 8.433369908003067 13.899678087106123 9.180955716224672
Sn 5.214029638872096 7.528147042230749 7.761192127920395
Sn 15.579969256350084 12.076855561110856 7.6875289375752445
Sn 5.437249343562194 11.592462701322434 9.275272646832494
Sn 12.658301756058327 11.593702400108732 8.824090875059222
Sn 9.467136749281808 11.14072606619059 8.692944414459975
Sn 12.544811278099935 3.5189028120485304 8.739359670684888
Sn 11.811072233850215 14.260026755389944 10.087946132476752
Sn 7.571928285255986 5.446897261226608 9.930414066893402
Sn 3.064462085897194 9.35227028940765 8.923139986935345
Sn 10.706684522598437 4.686014617892744 11.103526580229067
Sn 13.952259510978536 8.877922273422717 10.973390517933701
Sn 13.175026116433843 6.354988028846816 9.5141777009888
Sn 7.953631612292379 12.832203140085735 11.980173268933811
Sn 5.015561397846046 7.655250528136667 10.819906098355291
Sn 10.976354929940044 9.490586488447272 11.205623605729308
Sn 14.704024700670823 13.318930361145052 10.272464913383896
Sn 6.974335220042609 9.95779582544135 11.93990982536897
Sn 3.9756312193594563 10.512351207022064 11.565420080313995
Sn 10.860183564879769 12.305022568400402 12.498037947999242
Sn 9.057697514393496 7.326767730773982 12.225071204420116
Sn 9.962736785976622 15.038672077247044 13.711755852507576
Sn 7.046909065720195 14.318005964268457 14.40123399589421
Sn 13.01479142145214 10.543527394734914 13.769130423016296
Sn 12.365718326682568 6.84519661357489 12.769728903855672
Sn 8.750863762645544 11.70731373574697 14.829114755186579
Sn 7.7738935208626945 8.85187500424921 14.736600329960186
Sn 10.75792611355989 8.762419203741727 14.416945352422754
Sn 11.551208424132 12.844677919171987 15.434993943998705
Sn 9.117602262796698 14.139676575911409 16.57812898949874
