42
Energy = -148.1677279 eV
Sn 14.810646765903561 5.864976407188713 10.504615876151286
Sn 12.949292540419428 7.182300896368948 8.505225347808102
Sn 11.253506635965687 9.500179183115163 6.605081059467507
Sn 12.374688572044434 7.296582180097204 11.733865690089612
Sn 13.433212301223628 11.72611737775302 5.914539903682707
Sn 16.025456577282945 8.25994006687923 9.094748325731477
Sn 11.008810899337194 9.250419540886577 9.781873442546317
Sn 13.759652271794076 10.161950838845161 8.460129876068352
Sn 15.294789200485221 8.278803379538703 12.2243071748179
Sn 8.017221401987454 12.525292927622045 9.692850915647194
Sn 10.388050061517248 12.301955626807697 6.0988271194072885
Sn 8.049452405456151 9.691712234547207 10.902067381543848
Sn 13.03035604381012 10.497315151176524 11.617990894004919
Sn 12.186331451573185 14.498558991896074 6.9110105960987855
Sn 11.141210323971059 12.602867538713975 9.115953440649854
Sn 12.393620728536408 9.247752125604162 14.369282541568058
Sn 15.20453338171735 10.848497355180807 14.593748984449192
Sn 15.874709276613226 10.90252585876694 10.751852906403823
Sn 14.316460166439708 13.23266041052214 8.860388063041146
Sn 6.316227155580103 11.801678091472823 12.408225264047836
Sn 14.257459477265195 8.76693604261293 16.71291371584317
Sn 11.092145657564025 9.164933836035333 17.290731868326752
Sn 12.729961280101781 12.58245388498528 14.45429649182298
Sn 9.709645463692347 11.936767900469087 12.29933834449121
Sn 13.08698048057767 10.206056078929015 19.23752370660825
Sn 15.267340791564152 14.729691263161252 11.929905263983027
Sn 13.47722901761338 16.373327029723956 9.648504719704329
Sn 12.350926958952849 14.024325434985824 11.696244432318895
Sn 14.306878835111934 12.044958271801327 17.255816613682217
Sn 15.138641661654821 14.387684961717449 15.185956945035908
Sn 10.539450435383229 15.810224795789136 9.90339552353132
Sn 7.964159094333985 9.85426093077149 13.999335395746117
Sn 7.918421180510152 14.453239214112143 12.089212932104722
Sn 10.263604137850754 11.428539987267618 15.530766231485893
Sn 11.308309474641362 12.439738472976016 18.138857525249758
Sn 10.73842209602789 15.646472569858538 13.716678498674218
Sn 15.059315112427369 17.93436457590762 11.629689971943666
Sn 12.366280096230486 15.016037201327306 16.37146833149646
Sn 13.630715679312182 16.686659640107777 13.868168341496675
Sn 11.91705978448028 18.13664333114285 11.730872868760741
Sn 7.741273650990801 13.01096021468731 14.790410755795486
Sn 8.978364796448512 17.36485017931095 12.042702788748272
