43
Energy = -152.27554051 eV
Sn 12.573420607077042 14.490905621357507 7.1143241226085046
Sn 14.319393071115183 11.863611971197496 6.989839044858022
Sn 12.359824232518742 8.711499928459594 6.737184823221564
Sn 15.293579928948015 8.763968319021847 7.813403326435185
Sn 10.039698495073983 9.790669589048857 9.29635987937712
Sn 7.617722538623147 12.181839416752346 7.824883379252153
Sn 9.67684022967137 14.517247618946522 8.351611467143163
Sn 6.558533934602485 14.38631613833089 9.885867876066493
Sn 10.723909939998839 6.80566211137851 8.68637260887488
Sn 6.75895308774778 9.431792567552813 9.234029157197321
Sn 11.140413402968301 11.759833800670652 7.186374996689097
Sn 14.981762565351904 14.735646370336086 8.944421582889234
Sn 16.143959806572898 11.962687938153374 9.505986112306505
Sn 13.735555665747782 6.100663430052372 7.864070178168595
Sn 4.792746836031949 11.887856968292589 9.283074186470866
Sn 12.614012977622759 15.445184791116223 10.619034179303481
Sn 15.472995637123159 7.014186651590124 10.35104299206877
Sn 13.081198436406492 12.3443332520376 9.781212445916669
Sn 12.973907485985311 8.82926259862246 9.821352240483101
Sn 8.581166612158214 7.556360022118993 11.113107976215302
Sn 9.669810883133902 16.128760957751524 10.859168762153624
Sn 10.328162841373125 13.001283597672424 10.983050520764982
Sn 4.945592504743126 10.002223809030383 11.776517237692298
Sn 7.524893421646909 11.597646445950888 11.226760898812334
Sn 12.673413798940677 6.046600549851475 10.951260951828
Sn 7.630442258268912 14.179803653425038 12.936053568055561
Sn 10.564734841915703 9.902914409831851 12.445943558294518
Sn 13.893046930481125 15.15730977847775 13.64560468358056
Sn 15.272558764474729 9.911694236029147 11.632129467474131
Sn 16.039768767504583 13.285334470201425 12.662617517750187
Sn 13.294985461847352 12.033054697088627 13.295638750491182
Sn 10.56930076019782 6.816169841099983 13.28077835283485
Sn 4.707676165924705 13.094329881923018 12.118112522405243
Sn 8.015181889806408 8.747504039860148 13.927191417981527
Sn 9.415335098480803 11.753751491459106 14.677069216685787
Sn 16.124833030430228 10.816037042324062 14.458500638678357
Sn 13.130259570435744 8.60211650618232 13.51655990788554
Sn 6.366927412012415 11.370990362626761 14.31266410899452
Sn 10.650368172683946 14.691028449632228 13.524611881326933
Sn 15.340827958569216 13.471622745475438 15.77124072038186
Sn 10.61647973351926 8.892186045367623 15.60605363469676
Sn 13.524975460606875 10.556461794112014 16.080294682602375
Sn 12.25221019683324 13.35302750476698 15.90000583825966
