46
Energy = -161.41440197 eV
Sn 18.618248727194374 12.989851431884606 -2.319059544396174
Sn 17.763805690929928 -0.2769004930624068 17.48002937194049
Sn 17.118486056900025 16.237951990402358 20.620831954141998
Sn 15.921100077294822 0.8494097583410676 20.125087316507223
Sn 17.1056526922382 11.361199544028294 -0.3221687545164087
Sn 15.639037249876804 13.630295040057355 -1.9978661687795825
Sn -0.8976410357950908 17.662574056579952 0.5963007339772977
Sn 16.76269652253964 19.912528954748375 11.747747133175228
Sn -0.332301849388288 18.285363876176163 -2.2568728704461436
Sn 16.499009946276594 18.261194489342223 16.334275322717833
Sn 13.09480187473596 -0.8486318203286066 19.973878349279598
Sn -4.360029090900298 13.286676863186118 14.449343179870004
Sn -0.47751967871841305 20.751675386675156 0.1225076209776817
Sn 19.06829462874495 -0.16687861527964395 21.74720151396641
Sn -1.6657772692150061 12.739884924971308 17.81764684851355
Sn 17.757030515676593 20.33141203397491 14.564773301546394
Sn 17.98714191348711 17.27396306602235 11.54566942935348
Sn 13.842166465109617 18.607801398595914 -1.5727156119344121
Sn 19.56932102776512 14.566802557366374 12.071902293885977
Sn -0.36443657875529784 1.123370362780608 20.97487770711508
Sn 16.262507603537593 18.221959938797372 0.6526009277717462
Sn -0.20172871140110527 0.6727396917933113 17.92902660710556
Sn 18.961743611711263 18.947928181336092 -0.8702446702714606
Sn 1.2506393316361406 -1.2899625804322514 19.81365451891252
Sn 14.531886578622355 0.14672485014771744 17.3795211865594
Sn 14.461529173597064 15.958146658957673 -0.05323246066876802
Sn 15.379253438087042 17.901449107957205 13.526040056854875
Sn 13.830101837852071 -2.9987315230564504 17.573424112077277
Sn 19.740990151072648 12.566710956959806 0.5612665572038289
Sn 17.352136125950544 14.923701867300586 9.844101066025797
Sn 19.383604530087595 1.6470011573280559 19.258008808891844
Sn -4.157446232572119 14.646025560313678 17.309154205372042
Sn 17.397874004069216 12.46882631909863 11.490506401974455
Sn 18.687716289979317 17.734050267270202 -3.808096042910508
Sn 14.635406355098771 -1.5535857747981117 14.685456575991163
Sn 15.229326452735165 21.021047343098527 -0.11216947137433007
Sn 16.825800450016324 14.085495817338288 0.9720992134841274
Sn 19.38671108549723 15.533492740726949 0.12800095833053826
Sn 16.082984525289714 14.994144188877472 12.689523991083936
Sn -1.494030862039061 14.543100569384094 15.399808529335694
Sn 16.278907659922066 20.127491738923876 19.351703843505103
Sn 21.3951732370681 14.229655718849038 20.537700644066234
Sn 18.415674784587587 16.490720342649336 14.486334013771232
Sn -1.9103129401147012 -1.3931946163519735 19.20639795033066
Sn -1.191974720117257 15.988204676459123 18.02626387949389
Sn 16.476732215315376 0.77056285643605 14.999249256131812
