47
Energy = -166.23805735 eV
Sn 10.285737314279118 8.233045596234867 14.644898097711
Sn 11.18256654082977 6.973385500617357 11.936892192304995
Sn 8.14607682599212 7.206347636729845 12.16804426769563
Sn 15.164662130889358 7.955311744226703 11.593291786374602
Sn 16.642770080308654 7.4254397347955 14.302804228589844
Sn 14.497277348131014 8.014373341388144 16.50190119274088
Sn 12.041134495463133 10.099484515371373 16.412756933038274
Sn 13.70671049726733 6.3141637198614475 13.934826698856169
Sn 7.493896101193658 9.376172078220316 14.269753202745171
Sn 9.305290932100716 8.441386028569525 9.526739361872117
Sn 9.200099172338517 11.510593016996877 15.978466386177564
Sn 12.502630202344143 8.255044784629233 9.57968346385046
Sn 10.011234503560429 10.10802509851283 12.217909368889494
Sn 16.091462969420515 10.548965950209334 10.001271940659423
Sn 7.054305817264852 10.01950040897384 11.237762052322804
Sn 17.61535645485998 9.769494880733642 12.653050259587188
Sn 11.025438882727979 13.736898559351074 17.163531099272443
Sn 16.114835174840547 10.400484493421395 15.307582536532573
Sn 13.35608825146194 10.773214774909713 11.202768384053686
Sn 13.82357268892813 12.505928968128007 17.21441155704653
Sn 13.511087344591726 9.299542216768907 13.90086736109488
Sn 7.501676714810575 12.45198152713576 13.515291880439339
Sn 9.609204075611393 9.744129270998153 6.014436955889649
Sn 13.777559664924198 12.360519985448262 14.213132087815818
Sn 10.749880421963706 12.920458078308865 13.802790702459182
Sn 8.053490120329348 11.220099251476274 8.378722094578471
Sn 8.57272511260326 14.824920252764334 15.608835890471104
Sn 12.499124137718999 10.791681921438164 5.774992462696132
Sn 10.77472653713375 16.703687555088997 17.232532697623224
Sn 11.243684446155083 10.851372641697493 8.500648084208786
Sn 16.10259221315085 12.612699815441633 12.257070908281783
Sn 9.815703102711407 13.295674571338022 9.602306688384045
Sn 7.4431475229360275 11.853197766282744 5.502496683065462
Sn 13.54465369156839 15.46369997203645 16.35569365453922
Sn 12.526521779696337 13.956641385877063 10.977404967536312
Sn 9.053299688505374 14.847537322257832 12.311639322354445
Sn 14.976553673838376 13.446524783375448 9.216271273841645
Sn 10.269343468247657 12.449803341233324 4.5690949895202575
Sn 11.045015358690849 16.227516176878883 14.351308308442286
Sn 13.893088889376306 15.464457263813896 13.341398094724484
Sn 8.963855716838037 14.238548177801503 6.7279611836822575
Sn 12.02545794627462 13.529057035746352 6.991062067294328
Sn 10.953168488584504 15.972788232578718 8.338340262572508
Sn 16.332531359469744 15.481581313022952 11.118785498499468
Sn 11.729469664450354 16.96242789742401 11.396743667858821
Sn 14.017264757330013 16.353492171887375 9.222031097233389
Sn 14.659571700225907 17.914595489617184 11.835495389850719
