44
Energy = -155.33452165 eV
Sn 6.481261734975627 12.711815389890614 5.0869614782056916
Sn 8.257422067848749 10.28741994653379 5.562867978745531
Sn 10.115370716658212 12.607677030657173 6.527501141122827
Sn 8.459907289882452 7.357270008825205 4.97529276770305
Sn 5.166412053926551 13.686099011820843 7.7384844144943346
Sn 11.504037955214534 7.696361342076103 5.596585720200238
Sn 5.596911399982872 8.5121074120088 5.3011489011375135
Sn 13.246642342209642 9.930043588594865 6.98045900240632
Sn 8.013910681728929 14.781356223818982 6.645794837375052
Sn 8.675189721645003 10.744064260856288 8.59766601477207
Sn 12.828594268547398 12.798171556665888 8.057993359071796
Sn 15.506245032725024 8.358057585123138 8.324905412025101
Sn 5.754310938771155 10.728917708265367 7.454504750799802
Sn 9.48965184375488 7.729690252268948 7.946979809940025
Sn 11.324125530852305 5.220281606813554 7.22693711084391
Sn 6.850525232438243 6.265887654286307 7.372256257869396
Sn 4.597129950678251 8.089261833055033 8.243121505986162
Sn 13.507538218954426 6.267352481646147 9.11602009602667
Sn 10.272446071921513 14.997001576947321 8.747990214897015
Sn 14.57200140378983 10.780936000114316 9.921479325116819
Sn 6.98077349923358 8.702616839279406 10.040624690574534
Sn 7.126516709242798 15.602751031886468 9.433967387333867
Sn 12.118005152014076 3.5643996335564183 9.732937805574439
Sn 9.686838790714967 7.655359705480956 11.406835618744045
Sn 9.126990576095919 14.524080341316347 11.513937168887008
Sn 13.700778522531289 4.987616260283689 11.9344057065511
Sn 12.01624681739887 8.788894146325621 9.46924639719387
Sn 10.748379522420814 12.206419335384012 10.336070239957694
Sn 14.954196420189984 7.855136007037255 11.47077626071794
Sn 13.49151034296791 13.680484919989704 10.93116482157681
Sn 7.09402301792894 7.836664627785096 13.350603318669048
Sn 10.570843255652512 4.876771988682388 12.162191579255552
Sn 6.870720175467351 12.6477689314585 10.233868335191202
Sn 12.626558115250372 9.610371402864237 12.317804811807187
Sn 9.184851028942493 4.926917811741964 9.370673391917297
Sn 8.811769658477537 10.528948550805154 12.563294334622077
Sn 5.625142274676042 10.497694102061706 12.320858009759469
Sn 9.45771321924812 8.747719726240657 15.03350434544312
Sn 12.080249822431957 7.0460280024901225 13.709083373354268
Sn 11.98793460271 12.329815171716536 13.2787769630882
Sn 14.95681956126527 11.650842572850355 12.789189218734135
Sn 6.759953569273282 10.313955191409828 15.21174898493262
Sn 9.54387687141614 11.795842943552547 15.275503395063108
Sn 7.174569231895794 12.98802349948182 13.602878956261726
