41
Energy = -144.47045189 eV
Sn 13.723137917298526 11.529045876996582 7.3703419829757895
Sn 7.901021186826884 9.027375225005324 6.428252807343922
Sn 10.78688074271402 10.375278042216106 6.502028766106896
Sn 7.983749110636665 11.974880983661373 7.113481957716758
Sn 11.263423218796603 13.590016823909167 7.509075490476918
Sn 13.445391786384416 8.293029768446097 7.603802767402066
Sn 15.84234486016576 9.720393334551215 8.981271658468433
Sn 8.569492909532396 14.928160882887573 7.787951473975967
Sn 6.447297300916124 10.06362579550756 9.075741820114569
Sn 10.388008767993401 7.315538969653114 7.462539654266322
Sn 14.543195546099964 13.26784027622692 9.972336837412055
Sn 6.407537762985447 13.345696805969187 9.540340617204397
Sn 12.598276870194688 15.572456211958947 9.272906529911651
Sn 9.566399149412629 9.964364762590467 9.211904405244306
Sn 12.814157173930836 10.354855798206783 10.068972103682862
Sn 12.187398188362916 6.4731804652671725 9.83120612291721
Sn 7.857704774177893 7.362220204269136 9.249285484551233
Sn 15.243120617034112 6.758675138115478 9.677821054718265
Sn 10.679868709910314 16.802406675405358 11.211349553588715
Sn 7.84211656098306 15.947368243328581 10.560940902242963
Sn 13.950704261871685 15.645325101154782 12.045355915019845
Sn 14.111060273250594 8.226315656359231 12.020235041930489
Sn 15.675664060760834 10.78020775928831 11.774228038164265
Sn 8.891037761369544 11.030156040474681 12.1463508434958
Sn 10.761253348066017 8.273908131881257 11.881249240549716
Sn 10.119311976016016 13.787211184509376 10.419196352137714
Sn 12.464463518207026 12.403417621624587 12.411356884485427
Sn 8.272060292802822 6.397901782045384 12.133638190876848
Sn 6.88765459490807 8.947254224417003 12.949395443910596
Sn 5.55305270633477 11.372159193942348 11.840683393890997
Sn 11.033860642982225 5.206773279997894 12.510918849003012
Sn 11.16446346159092 14.940582935646496 13.554941295750488
Sn 12.77998432112836 6.8220560116665645 14.345901234556324
Sn 16.154050226659965 13.61137225964752 12.76484521346762
Sn 7.285893995189129 13.66241445713566 12.709640997371627
Sn 14.301924547094472 11.197442290861334 14.53616142585558
Sn 9.502615436005874 12.623751887880116 14.611961224948969
Sn 11.40715348776193 9.874770422586701 14.393181068586182
Sn 9.819125737936963 7.086742941779274 14.860337592577633
Sn 8.454551047341639 9.809088011061377 15.404316350196982
Sn 13.839424118647214 14.15457149215039 14.774386383186439
