42
Energy = -147.90987853 eV
Sn 10.495310082932544 11.892735587477059 5.1133162871631725
Sn 13.343009753805918 10.56589141193155 5.799377296088651
Sn 6.532905257540701 11.959786230390906 6.855351653012986
Sn 9.239768535022035 5.828649330678915 5.696944856790513
Sn 8.383507511057616 14.060806425649176 5.704720673241579
Sn 9.769917894545268 9.10797408899001 6.20197647421581
Sn 6.448813720402047 6.191781320414542 6.975683659933014
Sn 12.166966516044328 13.477001327252275 7.04565986572581
Sn 12.670684214240637 12.401220588507096 9.996372617631486
Sn 14.318285059476086 9.763619465808585 8.62872512086184
Sn 9.312600945418026 11.836016752396848 8.069808381966066
Sn 8.198694566621963 3.65929815899246 7.77990103779936
Sn 11.18716434837771 4.786462959084243 7.894039236070546
Sn 12.456145007848601 7.9038259726076925 7.067464290169483
Sn 14.963725599483672 12.576013461734785 7.535813599811799
Sn 6.1385564097740835 12.246099252475606 9.778600603430098
Sn 7.194092932951175 9.194931000064079 7.797720629443385
Sn 8.991030154674 6.8112838019776145 8.584850286068841
Sn 9.462736495499605 14.734006827041318 8.429883447422505
Sn 11.150344645424846 9.683663338017968 9.245716692522256
Sn 12.470258515500369 15.422328705753934 9.203154438504452
Sn 6.152118074281378 9.261688094864752 10.795003082530856
Sn 10.578636755814166 13.374080503112646 12.154512635449004
Sn 15.499497009794151 11.716239541507806 10.502484505523336
Sn 11.4021781709025 6.892766113549154 10.624023105538324
Sn 9.485020542822262 4.263226259637393 10.518185454070569
Sn 6.6415833135388995 5.357243313652813 9.978530214105703
Sn 13.751112518419195 7.896295476985602 12.660703505156476
Sn 8.516422351059328 7.294138813683343 11.799646393465824
Sn 11.434319056923703 9.941557166303042 12.604402153052295
Sn 5.293847523600463 12.182333929161924 12.759131887824063
Sn 8.593271826207271 11.191882526480777 11.312959441887896
Sn 7.395286531633666 14.354113064816628 11.446186678845255
Sn 9.9451097680267 16.08882606175267 10.937008408200539
Sn 14.349258526296875 10.760378786636865 13.32115098453579
Sn 11.125041417781858 7.192498972543951 14.095183036466219
Sn 6.986391183816106 9.961236865155502 13.746256997480446
Sn 8.133058401282605 7.436166592480424 14.827885498044145
Sn 11.977263572931992 12.15639484797801 14.691665051449949
Sn 13.023110205927 9.106900391403705 15.534340737790224
Sn 10.002640466929789 9.922304398378648 15.464046594491494
Sn 8.06955783835746 12.795575495655795 14.070855709206906
