49
Energy = -173.43236415 eV
Sn 10.986673378501584 7.626702892424118 6.409461676262308
Sn 8.176519980980164 9.158857878947412 5.892008194463267
Sn 14.05088561340676 7.394768257663914 8.073748151000597
Sn 10.981007749161419 10.5940592103912 5.953491364916823
Sn 14.933701788880759 10.340335985561179 8.302508671926637
Sn 11.33260869022936 6.666063247853661 9.838370454567976
Sn 8.610186790405335 14.795682925815713 7.33111981172803
Sn 8.543189154561578 7.160650996845783 8.159296824715273
Sn 6.19637887114296 13.088020826185229 8.10276681011443
Sn 12.772562115078044 16.114338522378667 8.503454263201307
Sn 16.41098991306807 7.939176957865789 10.159848424931994
Sn 14.95240521629643 14.562413724758105 10.081500483113206
Sn 6.270475929251643 9.88020799380676 8.159429266705347
Sn 14.138344189968567 5.380414376432848 10.345813929091118
Sn 8.845443307174824 11.644939998434868 7.891722659758273
Sn 11.893896847616446 9.745022796646484 8.756045912466092
Sn 13.72446141427622 17.286102683909327 11.116040578002856
Sn 17.160593729931964 10.909018689491496 10.393146476746983
Sn 6.103362822647387 9.417765906448311 11.189802541753881
Sn 7.294694698811268 6.640762506602591 10.903639486789125
Sn 10.18626748415752 15.45732515863978 10.052432041003335
Sn 13.852707783582938 11.754056907254027 10.826882855643829
Sn 11.378932243484115 13.417956259346047 7.645668878430083
Sn 7.179474363886087 14.97210403159598 10.249438408991013
Sn 10.828989661607459 12.552827998410288 10.557330311084625
Sn 10.95226098612258 17.161986159451423 12.423465414042495
Sn 13.47996627451567 8.469536617495569 11.428563434937418
Sn 9.161324180939816 9.113915626183969 10.34552734121042
Sn 7.741829918003939 12.0163166767524 10.8882408955286
Sn 15.7473842862459 6.48166817095918 12.85409298043923
Sn 12.739304206705775 14.608083107317624 12.367368818547167
Sn 8.61578193655268 15.428680547160138 13.522808795536085
Sn 10.612443608666954 10.099762086956568 12.81140671998912
Sn 16.20434151127959 9.472889218601336 12.989053652630588
Sn 15.725065058690689 15.934145003218577 12.853162081749044
Sn 16.229857404300358 12.862178237859355 12.54496371241111
Sn 12.686785557924072 5.844204480162209 13.027880974937217
Sn 7.073245995513039 13.087047111444027 14.874884739291808
Sn 9.763109818320006 6.903499586866996 12.70321971300281
Sn 10.1705762886469 12.91461327095417 14.066635939754716
Sn 7.6720119823476685 10.337812487484905 13.73874056286813
Sn 12.37689996352413 8.482334150446922 14.67925059813544
Sn 11.495541514659255 15.805620277629206 15.228401159933735
Sn 13.792917509810836 11.181947787490143 13.859670918310465
Sn 14.24154781674463 14.018852383910858 14.997603701846705
Sn 9.084757492519687 14.7551089470338 16.70142306145219
Sn 9.406281389306315 8.465683797845042 15.312720872089619
Sn 9.022805056603769 11.515155655994835 16.621910289223543
Sn 11.704249955736463 13.044425328859173 16.76907859651329
