48
Energy = -169.54681505 eV
Sn 8.060471913708632 4.094680574682625 9.660211326405296
Sn 7.394757637211354 5.328615464280514 6.9367986294422845
Sn 10.980431387905117 5.576204197452543 10.43941596058311
Sn 6.165485899893537 7.473274948837113 13.833428774710551
Sn 15.069159833372824 12.849064048922253 7.0113383078629425
Sn 9.677244255266094 6.348228606293673 5.174012385054119
Sn 13.711755749085112 6.96326732696689 10.754844132479287
Sn 14.273694680347262 11.649853822443106 9.753255824182538
Sn 6.966892652295936 12.264839684936888 12.294535061280373
Sn 4.715587337052987 10.002426252146776 12.860240995825217
Sn 5.341461601147988 8.196944008665824 7.942096673621725
Sn 15.079307334996221 14.604289936109742 9.497421068581561
Sn 10.688620259130028 8.061711014055216 15.02156130913197
Sn 8.975247159852715 6.958621943670447 12.509644049609573
Sn 8.449778196676315 14.791144791253894 12.704302767552635
Sn 5.907122682903473 13.797762749688118 8.374363646019384
Sn 11.533605857676463 11.062869040200102 8.191619010994
Sn 13.392569017221208 9.443901414389172 15.265515318554753
Sn 7.02577877503415 11.145547968436375 6.230123446816288
Sn 7.519038187192305 7.15814577127749 9.807290938138385
Sn 12.308146583202596 13.073610947859931 5.3818842756118865
Sn 8.264599162144705 8.418670897718846 6.797877741014827
Sn 8.247033012437958 15.387925470927835 9.668665222332782
Sn 11.986234260333239 8.339048395651895 4.119324043862052
Sn 15.185021648846256 8.796548203474487 12.800962720050324
Sn 6.702248758141237 10.788182198744924 9.30831071189212
Sn 10.482059412001218 10.454622945980814 5.48863234687517
Sn 5.655263874196378 14.981524456975064 11.318458446756201
Sn 13.79794700546379 10.283679067161343 5.718599585452786
Sn 11.945153143790238 8.95890927489142 12.184546422035565
Sn 4.609844281680577 7.580881112355786 11.012354375053812
Sn 10.798792896611399 11.114340076250782 14.163542293834302
Sn 9.178982402494416 13.146956487406856 5.197166805440921
Sn 13.540626158633168 8.70847318260397 8.29342484516571
Sn 7.894627703119797 9.937173523010765 13.96488415804672
Sn 9.163597086571139 9.991382005137051 11.091574486166328
Sn 10.5988168335331 4.456953649405648 7.591117754269125
Sn 6.206469884944867 5.036362885331107 12.045264959670519
Sn 10.139419168579447 12.942763452372976 11.03694856628639
Sn 12.916137213821669 14.12480471518807 11.498498630240757
Sn 5.09818624012817 5.148407669432686 9.100651132189933
Sn 10.599150880271113 7.934181246424884 8.691158590269668
Sn 4.39161170106626 12.24331951637622 10.612021874823363
Sn 13.19184412091281 6.662527527215837 13.936233940625813
Sn 12.361062761098157 14.076660520603957 8.319495325008075
Sn 13.591189430567638 11.494134584779527 12.861314164849626
Sn 8.858042921724827 12.788480775652374 8.189216513164942
Sn 12.51315911744298 6.511359728082425 6.499128523890763
