44
Energy = -155.00128973 eV
Sn 15.509480005851287 13.283936891530296 15.792675027801804
Sn 13.229044438457588 15.307280221420672 16.375470663695086
Sn 8.414262933893431 11.991907692098854 15.882344110319156
Sn 10.393225811165722 14.305136990368238 16.201114863972066
Sn 7.899241495210499 9.061015688628038 14.961108538500412
Sn 12.581820301479523 12.58486188225457 14.81076423399389
Sn 14.971605010373473 10.690774374219634 14.318199701208654
Sn 10.916647363236192 9.942041521279323 15.58342409033783
Sn 13.05982229243381 8.213304224451264 13.804538690953601
Sn 10.119016712820171 7.076638200672262 14.30945542486853
Sn 15.60303852644359 8.501822389426028 11.61510646542318
Sn 11.475312279195785 6.841069562570998 11.450277728490208
Sn 7.901079609577051 14.997812093875533 14.562062497195427
Sn 6.024430731486295 12.303112854878401 13.924323166330277
Sn 16.65956485371019 12.883240258566012 12.742617828045837
Sn 11.32358859542607 16.535865212122754 14.046275435280831
Sn 14.311505353460031 15.061259696831279 13.54727115982398
Sn 5.73089549847017 9.392520443384038 12.8731146563705
Sn 9.008009875292705 12.466207781411155 12.808139741296145
Sn 11.959959428757085 13.236514433419579 11.920447962657343
Sn 8.341567780890719 8.224304925013962 11.88811706509229
Sn 14.269570913136487 11.265853700391563 11.374116021525976
Sn 10.803649000758256 9.769933395455508 12.540104649857698
Sn 12.511410111974676 16.06257042243996 11.057464943105085
Sn 7.032340826061048 11.398922837783415 10.873059265456659
Sn 14.161162490302848 6.556670907772744 9.902311284437067
Sn 17.235093445265512 10.7256105761086 10.37192470612427
Sn 6.459348753081093 14.510643122049903 11.796606828079833
Sn 10.279551650568987 7.010963697006204 8.613253940738172
Sn 12.54657165338991 9.276369438936397 9.416875393331269
Sn 9.41836623630356 15.35079043887859 11.80028641269087
Sn 14.960021510222605 14.15825691895409 10.500683121849761
Sn 13.085468016706919 7.041711308798634 7.033939842321117
Sn 10.254600742196967 15.422269533100593 8.773183900627282
Sn 8.841543120561067 9.602388359459274 8.955154342653962
Sn 10.572176683123212 12.260123031871384 9.122321250887552
Sn 7.780319628540219 13.739692555172214 8.92760804810805
Sn 15.806505646251171 8.643975986361182 8.373988360510578
Sn 10.859134256998715 9.132187015607279 6.403539474405131
Sn 15.36126883167385 11.882272604722063 8.25214060742434
Sn 13.84629975345495 10.054763317668556 6.367550190695837
Sn 12.850671938644222 13.957778109895218 7.9795118812454575
Sn 8.656105064287065 11.674875812045192 6.753975815910245
Sn 11.542636751758451 12.18966954241622 5.987429897061902
