49
Energy = -173.00704542 eV
Sn 15.328635964134916 14.955836598590254 10.85160658583108
Sn 16.716426751424496 12.145913617185025 11.608736609656125
Sn 17.52454256987499 10.745834250757445 8.968061284443687
Sn 14.810816412075646 17.654517181039335 9.448878843758965
Sn 16.316564324701385 9.725297431777506 13.458482353016135
Sn 14.861870258637442 12.411594025931791 9.13041307921293
Sn 16.23294584919467 8.401718578095142 10.650899130143682
Sn 15.50229071433669 13.953031906824862 14.419812181499543
Sn 13.073120003083227 15.427684263950693 8.553694091778342
Sn 14.211804992535837 16.98422636610087 12.737683870240945
Sn 15.392344898836551 11.315395746026924 16.028974750400835
Sn 15.176952873144403 6.7605929571354455 13.061507837851666
Sn 15.769465484984142 11.104550312448717 6.535872789997409
Sn 14.417032514666626 9.314139351252338 8.497498277774923
Sn 12.986868141662795 15.49252321121627 15.278242132828465
Sn 13.869456833193096 10.660890286477484 11.50674252135148
Sn 13.195456029759136 13.053404278651414 6.539183167284301
Sn 11.505594577835916 11.746404518795433 8.971596922237685
Sn 12.21242217238943 14.595143279647049 11.601604111578167
Sn 12.035008204867719 17.859335536870688 10.6436317569458
Sn 13.884393120206367 8.668664662734285 15.159962007329277
Sn 13.946961555270441 13.719059764088723 17.433938952451857
Sn 12.881119462868158 7.738462762548325 11.24520685467466
Sn 12.82535249052213 12.531290247478893 14.102380783382829
Sn 10.204026058203956 15.684833557427366 9.259309804449774
Sn 11.548754418224348 10.485304021926142 5.968428611437797
Sn 9.92637185513738 13.095141594237786 6.393861986394757
Sn 12.410697527421206 11.033577155136449 16.812562011585953
Sn 11.43158956891782 8.65753560526732 8.370359021588609
Sn 9.292213611520202 10.179700686120453 10.784731377100574
Sn 11.1370303379141 9.607383103154126 13.385728126334449
Sn 12.094542994169915 6.328861491822232 14.070848966969416
Sn 8.792067604825068 10.344301392721375 7.405763686471173
Sn 10.83454230640537 13.635833075194615 16.351999651083574
Sn 11.033052494811695 16.988105823155788 13.424451775826407
Sn 9.345910060524451 12.743131767459793 13.39540786940568
Sn 8.755629103715327 15.449487196955435 11.915337470516953
Sn 8.504596483284844 12.98225780857331 9.055523776817308
Sn 10.786343196680878 8.35165533520151 16.17504199779683
Sn 10.002748869371015 6.846469587389219 11.974539637383822
Sn 8.82030390565028 7.394836970965884 9.290648270660455
Sn 8.69596133433092 10.716697847586042 15.702001004178978
Sn 6.284012073803787 11.183956736143694 10.240013477648404
Sn 6.673997862041637 13.158505797267335 15.250506382379667
Sn 8.170487058382783 8.031724968032663 14.14966137579397
Sn 6.399965397207744 13.571452328830128 12.237771967449799
Sn 8.673912559847803 15.34896626201008 14.994380593934649
Sn 6.562692381700987 10.647164164795281 13.397463924954566
Sn 6.733828239413689 8.333374071231757 11.316404661503466
