49
Energy = -173.01411911 eV
Sn 13.345116747129223 5.939426365354598 11.219447145983027
Sn 15.790714992025533 10.217738731048742 13.919029415075256
Sn 13.60628009969126 8.03225424207634 13.508946564013364
Sn 13.111615684327784 10.77281722245748 15.528747069039706
Sn 15.301689878170224 8.567873331607881 10.899315570660452
Sn 11.548418539777588 8.008371280030529 15.95779350106084
Sn 11.407645521114336 5.909338753052355 13.692831478449053
Sn 15.806997763772717 12.306916086106254 16.26795950946132
Sn 15.763606257652677 14.245999539276438 18.510445396397397
Sn 14.084753169290293 7.059059732878006 8.350275883087022
Sn 12.971600290963261 13.161347871870904 17.65487076133541
Sn 16.113384137423537 13.457103752572008 13.423864433671575
Sn 16.210640237309683 11.548787965364083 9.853926453563464
Sn 9.887757625878262 11.734565322749003 16.48691475946765
Sn 11.19843807481875 6.171171924143587 8.873310096446302
Sn 12.17480481576376 9.410622086541922 9.830864826934032
Sn 17.039156266422538 15.206619133711476 15.867904437571509
Sn 13.541281304361265 11.27738704611665 12.122854697454795
Sn 10.98116024043497 9.86358108117333 13.4136267791914
Sn 14.51721949796906 10.145101893084082 7.851140765247844
Sn 8.69024947300601 8.92794953565813 15.433943200910544
Sn 10.288059086077547 7.50591243648333 11.41109166736652
Sn 13.144067739951002 13.827549546513746 14.502063788259324
Sn 14.051150835584462 16.056891978149352 16.791908962256766
Sn 11.808394248748805 8.60965034308144 6.846362917899192
Sn 10.952122658117332 15.184671398049678 16.366178504939423
Sn 14.45582099240294 13.897872010820285 10.57895530086593
Sn 14.934628887082352 16.31148962099137 13.868813981019954
Sn 11.735564072597445 16.859491998022428 13.889570425876721
Sn 12.083358732313071 12.995236779170776 8.759705634872878
Sn 9.295634386335353 9.001413286109074 8.461032104608995
Sn 8.048017753884649 9.288390446340927 12.517611826300378
Sn 9.399190182086407 12.745592813277666 13.662591629555804
Sn 6.931877170062599 11.454743586239374 15.202217294290437
Sn 9.745868753218657 11.535467208701082 10.291525614078349
Sn 14.987197417515917 13.348927301332546 7.4601443513865195
Sn 13.794818822440783 16.165965564374353 7.885267485012335
Sn 8.017703208998164 14.255534737148572 16.04766842472325
Sn 11.373938412789208 14.424975030749225 11.861271018730612
Sn 12.694748056505542 11.746212706542568 5.932587296850566
Sn 13.270195334000336 16.769118975218873 10.885235870810247
Sn 9.719445024398164 11.789673878427429 7.054055620402794
Sn 8.84615695188069 15.887338568280722 13.606019280219817
Sn 7.299387685663434 12.87205883080104 8.840289086728305
Sn 11.714274129959469 14.736454173257435 6.130066630402452
Sn 6.871022576142026 12.040196462544266 12.164340205744853
Sn 10.924059940907245 15.942778086948152 9.05867229166445
Sn 8.411245488466195 14.670341002378523 10.869455173496114
Sn 8.837031546375195 14.85238427234608 7.1134236111727285
