48
Energy = -170.15523579 eV
Sn 13.750867761192096 15.623254959764681 5.735693583391124
Sn 9.471397452266308 10.982174541382935 5.806619490019498
Sn 12.392000963788252 12.829068966369459 5.007987620877537
Sn 15.035248615803681 12.792365296521155 6.662970890587151
Sn 14.582987108971116 15.130255309459391 8.651784471145954
Sn 10.693570212081838 15.290618597181995 5.9610822370377265
Sn 8.246106362693174 12.144421104988231 8.357043927991562
Sn 12.501292555966552 10.031259287848144 6.345621567106727
Sn 7.741927272505437 9.052343317260977 7.911652222562732
Sn 10.13356617019437 8.02373671288944 6.460708950377298
Sn 14.485982805121703 10.494842495520894 8.867552882090964
Sn 16.96766874979085 11.942575130998883 10.184631772186139
Sn 10.709772222450969 13.010923508213713 10.927111648585829
Sn 10.767740207953274 10.460527749502024 8.754676595232418
Sn 12.139165158418134 16.761671009817846 8.26458995430003
Sn 12.18806792120924 13.484898283213447 8.071829423989993
Sn 6.30478399088779 12.069470246249189 10.841346194564066
Sn 14.095264767397492 7.571960058588148 9.625486820726001
Sn 8.040656436403406 6.970918642397038 10.773956315335678
Sn 10.759611960882463 7.525315141322474 9.420855692578538
Sn 16.897157268046175 8.889939647587733 10.118756822165153
Sn 8.668189104092777 10.129366835746652 11.229226697866308
Sn 9.358200377454654 14.986013700964161 8.786596033194092
Sn 14.066832252516868 11.896052230380324 11.46040376626014
Sn 5.834289495027796 9.005671057751094 10.370434128739857
Sn 10.773268581164762 16.217074811873527 11.279728331082104
Sn 12.458467055503911 8.939186654155025 11.876060592332902
Sn 15.867419931888742 14.582155273073273 11.289189031503488
Sn 16.61287546541865 10.439847169784352 12.842091855742872
Sn 15.25172797894306 7.667349894849426 12.484541258056298
Sn 11.256803874511903 6.109688498935999 12.80223385917242
Sn 6.61056329462712 8.476081995975909 13.43252531766216
Sn 8.235739122158321 14.510707105151218 12.175402136764518
Sn 8.321802493436433 5.756781384873461 13.710525435062635
Sn 13.069611819114185 14.627068336002278 12.396432969699452
Sn 9.988063253656657 12.022262091102164 14.067205096356195
Sn 6.948689461164921 11.540861737543564 13.798881784341562
Sn 9.774407918582153 8.666923751002468 13.681507799180288
Sn 13.815749565633844 10.373459556003077 14.182629840366351
Sn 10.429151582145847 15.405697701223028 14.386275625978982
Sn 13.102941650677831 7.380969515599956 14.938668995984454
Sn 12.656379790188387 13.195253291934424 15.055954591946302
Sn 10.39648175042044 6.234093830508163 15.962686704494066
Sn 7.9318995812611615 8.083335445560536 16.222621962731154
Sn 8.219665376100227 11.348893495209499 16.621137063433583
Sn 7.636008058346999 14.373920462305982 15.141980126711365
Sn 10.8155993854941 9.44173982994196 16.352457982442022
Sn 10.180190265188754 13.692858784215646 16.886496378787456
