44
Energy = -155.56791231 eV
Sn 9.214404280592996 12.595426136780672 6.887383137623639
Sn 11.32514499179061 10.199570226735954 6.5698116507104105
Sn 13.006030694663057 12.626994606924695 6.893836666377911
Sn 15.425996208698253 10.75567508013103 7.546547857751295
Sn 8.474526703538535 9.512888479349074 7.609463248626908
Sn 9.637173286975887 15.322642943024704 8.341383033646164
Sn 13.995894129028589 8.030881383323917 7.866117918116402
Sn 6.206193863385082 11.79267725730893 7.171766230383386
Sn 12.84450962507548 15.148693930396336 8.57177356269135
Sn 7.933436834342074 8.180016716434762 10.640758045946834
Sn 15.014383964197322 13.089566653610941 9.63283630521634
Sn 11.02670383697896 8.086736253977518 9.17816012507654
Sn 5.5014026366604805 9.173349157958112 8.779020421897503
Sn 10.966680327899823 12.94887712154269 9.782349916507817
Sn 17.19438919775841 10.904130308693759 10.15254915289533
Sn 12.919877930738858 10.56633562746529 9.330085585120571
Sn 7.949752713449771 11.413872131620474 10.01033995411368
Sn 13.53553506221396 6.024311070822913 10.521270330739165
Sn 9.651295904385218 15.66139508380311 11.527716613645392
Sn 16.08062566832912 7.979267799179984 10.137136951424125
Sn 6.889865812392489 14.193033919599053 8.981558928453241
Sn 4.280502229464196 11.806918709885428 9.666055928538352
Sn 10.575654283670154 9.828454237684797 11.773379300837187
Sn 13.568030368989866 8.744137657493578 12.126834814895764
Sn 10.683098171300685 6.520133326961673 11.878328340340435
Sn 7.535361763372878 15.282558542841139 13.632685115291583
Sn 15.923043476582064 6.42439345410495 12.75842900307758
Sn 12.644722845269479 15.154165225037476 11.656826954495768
Sn 9.473254366680324 12.83361072754967 12.90691393277927
Sn 13.003799880211101 12.180800826205541 12.255244096004144
Sn 16.120176480569373 12.837426359600036 12.500039228265495
Sn 6.044130197627817 13.261952425311476 11.71494653923971
Sn 16.603922520929732 9.64897042145425 12.940065631472237
Sn 5.551276346482678 10.037299588751878 11.869068523588236
Sn 13.102703739466682 5.811669184818029 13.680442523187343
Sn 10.786807744943935 15.507640831670177 14.512238948313165
Sn 8.149196716417842 9.161069507960372 13.55647597159386
Sn 11.130787200048124 8.283252673970583 14.42275224544117
Sn 14.379627025670567 8.25073630018026 15.082142236365257
Sn 8.751727416083249 13.790001763889363 15.997134283282241
Sn 13.714247571217875 14.521258806146824 14.43748761916817
Sn 6.88503970456644 11.880977751561298 14.322290793569847
Sn 14.595228089817079 11.32234469322867 14.715506880542529
Sn 11.445843340296184 12.445890247783115 15.204850605520113
