49
Energy = -173.4149254 eV
Sn 13.021921199265341 11.625449343632352 6.643220039326395
Sn 10.825136482476717 9.454668209844067 6.8211131722695795
Sn 12.4222173171589 14.62789207073714 6.90259262335555
Sn 9.922442077292242 12.333923452822651 6.852107880403568
Sn 11.329919480883097 5.884259217178519 10.256068330911615
Sn 8.575628731457355 6.8832340358158 9.524499081567342
Sn 7.599743374820852 13.803274382705725 7.87841875295105
Sn 8.456433008089876 9.761128886435086 8.74805021598245
Sn 14.82568311751098 15.436007525868908 8.611892514942248
Sn 15.544391887780874 9.943403165933796 8.296148264190913
Sn 13.094328245550624 8.210398734292104 8.994680741027663
Sn 14.133874653073947 12.532093398228746 9.380031713916257
Sn 9.888109276297195 15.814717721482374 8.073248207825019
Sn 11.415202840310956 11.00589738169793 9.446670819754978
Sn 13.579612825997387 17.522822943272036 10.520357757811286
Sn 10.475642282278962 8.703381769013099 11.442275919167589
Sn 9.19551231223644 6.106712191443229 12.581846670721632
Sn 12.097126829943813 14.862015271578457 10.096626248741721
Sn 16.742024701176504 14.124842805181062 11.369840085925532
Sn 17.37343596861271 10.125051522210514 10.686771768441535
Sn 6.727199267686726 11.715230150488917 10.290556076847688
Sn 9.430563753476463 13.17110202964714 10.159827378979559
Sn 10.484710857962995 17.581388992136713 10.519651224524228
Sn 16.17528506692409 7.327657319685349 10.410591392878024
Sn 7.3150778657462645 8.506172320276479 11.92383260058235
Sn 13.722758682260908 6.838355816484636 12.018688377097623
Sn 14.224184411697642 9.88711286836441 11.314675352991811
Sn 8.955378482501718 11.16297916093529 12.772474649798513
Sn 17.27873556546468 11.836306487460915 13.406135891713863
Sn 6.135808322204393 12.303792081969366 13.301861106705063
Sn 14.275574392524462 12.881829464438482 12.659724950132636
Sn 11.251550857685755 13.499895701891068 13.192421307985475
Sn 16.68269246764916 14.671386207582403 14.60414795178869
Sn 14.716226998639556 15.993820968009954 12.79606265937705
Sn 9.073055947505933 15.480873036108665 12.231331626419363
Sn 11.582751838254262 16.82060910617921 13.549406247455645
Sn 12.048456131188319 10.33698775041156 13.835850685502587
Sn 10.77105670978078 7.54754510636323 14.659902327509188
Sn 6.965174516123758 9.765368463247384 14.750810520686192
Sn 13.739413212695498 7.708111759449083 14.951863751187872
Sn 6.841055629030855 15.15945087182478 14.139134381230368
Sn 16.28341937714208 8.707498962921019 13.271964913945881
Sn 14.971614472768637 12.001772127096194 15.418642450209639
Sn 8.059187540881544 12.634688243825897 15.789265118946297
Sn 9.699067192804158 9.817341149855862 16.22784788870544
Sn 11.173316127502208 12.754752922049267 16.191040299669346
Sn 9.577571247497444 15.411315346710738 15.443377502001185
Sn 13.57380177548186 14.822347431086358 15.399620548574534
Sn 12.865307550265767 10.006324998450175 16.75083001762193
