49
Energy = -173.17279715 eV
Sn 16.463897919128918 12.505264594384023 13.964426652717755
Sn 17.001466531968077 10.945869088034483 9.842441502521318
Sn 16.63483045864645 8.752065951500207 11.912284005747226
Sn 15.755267349251694 9.575360149148624 14.781726428416414
Sn 15.413504690603776 13.36918077573148 11.211891506950758
Sn 14.27351932663438 12.504724686011603 16.15798057684473
Sn 16.546628398986815 7.763590625049911 9.03142667867663
Sn 15.226152115457873 15.36588863496519 14.562831789537983
Sn 15.538852090682198 10.072451671183186 7.3264895065974684
Sn 15.098972212377996 16.41568162035709 11.35438736795906
Sn 14.38688349592367 13.369377490027755 8.247639560475566
Sn 14.538979027101641 6.853528722700573 14.013445672289498
Sn 13.572571759145053 11.36758023076004 13.201254818870026
Sn 13.184730544106053 17.468484363830207 13.597449286075799
Sn 14.14267481643245 10.035024992845761 10.323797329616022
Sn 11.819690642335596 6.74851905211623 15.53938824390288
Sn 12.988762634094673 9.554563934999958 16.194556301111927
Sn 11.300378222037601 12.128170767048324 15.141805424451936
Sn 14.114892754735147 6.910384689460228 10.959660369052303
Sn 12.377344286753475 15.096416855893892 15.640210418517217
Sn 13.710920937311682 16.449697593355303 8.159122346871087
Sn 12.81823189130249 14.5128869608779 12.547918541413315
Sn 11.68403090229794 14.100907246922231 9.51134802796986
Sn 13.506046869404916 7.824837298132284 8.009120721728712
Sn 12.000889839691165 14.467277866877593 6.433606857085572
Sn 12.530178110707952 10.960529367353184 7.736333108065394
Sn 12.159753157317278 8.662089123665028 13.09813504838833
Sn 10.294855270613729 10.547625930826927 10.0305731844492
Sn 9.79686286211604 13.049858564938289 12.50261919614499
Sn 11.962663886492074 17.191675368780288 10.654266663021097
Sn 9.892145332257277 9.239202660790815 15.732322078961351
Sn 10.898860780211242 7.300079086786655 10.48487271038957
Sn 10.198732632327692 16.122811134967993 13.415613229549129
Sn 10.638994433166536 16.903948562596202 7.78460575426151
Sn 9.1999328624361 14.114148272500413 7.675544109774169
Sn 9.65118639978371 6.9024938737287655 13.335292046908014
Sn 10.474956902579915 8.307491540864731 7.654519753994282
Sn 8.779399990439428 10.113392247501848 12.931221144597183
Sn 9.12615443129473 15.678164253527195 10.431989826120954
Sn 8.110300511224745 12.663788255677963 15.255197006107263
Sn 9.649431829252247 11.095791403893394 6.832261839261125
Sn 7.8215668645941365 8.295777988152835 10.303256697942953
Sn 7.403587716620383 10.936759139980122 8.903080568112271
Sn 7.074490122142615 12.999645377116043 11.135991048591716
Sn 6.531138227890967 10.15273710365763 15.147174550198818
Sn 7.1667822831151895 14.905201491294482 13.545500271904727
Sn 6.647324398781904 7.741382420478887 13.132626863740036
Sn 5.7092833273117725 10.327228757199686 11.84440208847221
Sn 5.181805206906767 12.60586778613219 13.78474272509059
