48
Energy = -169.69720949 eV
Sn 9.070582216528493 10.864004024357763 6.42141791868722
Sn 11.180254424929668 13.161060638268731 6.544826397044173
Sn 11.988320921384505 9.835184461117667 6.479868571650662
Sn 6.609211080062326 9.658378128717564 7.919493116323812
Sn 7.499205731783912 13.428646702288965 6.944733632957257
Sn 13.205512124713952 15.128350799502359 8.021581119814073
Sn 9.501837243997201 7.877752309976395 7.397500925604508
Sn 14.176699861867167 12.200493831854804 7.1662244788177185
Sn 14.451428166446908 9.006999400459344 8.28474024409073
Sn 9.686212282248787 15.625551919358857 7.566002658064094
Sn 12.341525626969428 6.791555206075064 7.345582109318288
Sn 8.5414869776119 11.489519492698758 9.570227548483642
Sn 16.910393482199012 11.325336931050602 8.762781464765244
Sn 15.70174373106276 14.050416965005647 9.243291241218648
Sn 5.431801098742454 12.429035537992565 8.940561161070676
Sn 10.97153176810836 13.583119900861881 9.677998106084463
Sn 7.6076932117077 14.598416735126523 9.769935003982347
Sn 7.526613316773422 7.226477033947397 10.031535658643447
Sn 11.373121539614573 9.237114855187647 9.534605438841822
Sn 12.947081215591904 15.80465916942571 10.992662691570276
Sn 10.478046142168346 6.063067557369212 9.857981375164167
Sn 13.278491003406236 6.992635921191062 10.415311925291284
Sn 14.378873999076175 11.416858175544057 10.736589010995543
Sn 9.990282810784148 16.47421491478245 10.517012285036566
Sn 6.627526757431478 12.803896072253124 12.099356752084342
Sn 8.72278130709124 5.524626271493898 12.678274178274766
Sn 12.44888163597722 9.53710931882547 12.861129163725431
Sn 17.42269335405461 11.722353729306976 11.752606427565421
Sn 9.662809620093936 11.84230093546697 12.795034185289339
Sn 11.347213980198052 6.697064941572481 13.810325002470595
Sn 12.432837593820922 13.194892111640774 12.652467909179276
Sn 16.3515935492475 8.838804583271976 10.779398929574032
Sn 9.255918113231399 8.663172894400965 12.22917981236776
Sn 8.984229796343962 14.906123146969605 13.091501712263623
Sn 5.8886694580920045 9.949342566148124 10.94724120745037
Sn 14.55528375106076 7.340149667462011 13.127358020432668
Sn 15.485373018517297 14.02100791521634 12.348406234094954
Sn 6.183042784681889 7.1524791052226995 12.858003284397435
Sn 12.003380136859418 8.814172058382587 15.9950543985784
Sn 11.8423559265838 15.985346691211436 13.940894053146053
Sn 7.586543792245187 12.779304243024654 15.116897263324335
Sn 15.794468654599436 10.041341618858084 13.613908972136242
Sn 8.558012632729318 7.5196749346393075 15.107206338585394
Sn 13.545886554837145 11.314394627963269 15.148542980657915
Sn 11.036369221660866 13.525978080774504 15.515208384526245
Sn 6.905359603840007 9.91594640999671 14.026666266043549
Sn 9.76907253833495 10.75830597052823 15.644411933611474
Sn 14.167464198410547 14.3090794509305 15.14418046442201
