41
Energy = -144.49242999 eV
Sn 8.903512587485006 8.148343440606354 11.406378830158298
Sn 10.833388087909105 7.988388293439782 13.875046290214321
Sn 11.242754067435566 6.899240038968795 9.49473785501103
Sn 6.7399958609219635 10.097414080036648 12.290674052387729
Sn 10.19570418451737 9.801050881701006 9.111333291680015
Sn 13.486276401544782 8.487363748970932 15.8274915350876
Sn 7.54038507840964 10.871773791196322 15.052445007564495
Sn 12.892817051658128 8.514236735280125 11.693612280932706
Sn 14.165178291846685 7.578597690065836 9.022734032286849
Sn 10.524162209470004 10.436777464650246 15.641359839623568
Sn 11.98158223601742 8.525683949090752 6.961340358414407
Sn 9.619438599955904 12.676902525531055 6.238827333940839
Sn 8.073123295772547 11.954859902383557 8.675469768480427
Sn 9.71406677805944 10.758053262942509 12.810323672911219
Sn 5.794055504471693 12.423032771367184 10.544625542213556
Sn 14.363063747330534 11.04637157216252 17.44714154523346
Sn 14.306962979609546 10.962701180894996 14.270141772830971
Sn 7.482620614561824 13.216785964534749 13.058577418115641
Sn 15.506090424523746 8.114663326597093 13.444366086314622
Sn 12.412112797737509 11.29907753969622 10.663615852177498
Sn 16.573237479052647 9.35567363798347 16.19157393035362
Sn 9.76621319228454 13.144626743393372 10.918838712195493
Sn 10.672047354642622 13.548847585247406 14.849848011299729
Sn 7.20160869241481 15.284618914371025 10.3347151635616
Sn 14.678368985901534 10.205009791087047 7.38324693120823
Sn 17.480599226113316 10.558507197752965 13.534064405176458
Sn 15.484031993168186 10.012269982725371 10.53222157361622
Sn 12.102521681548554 11.671312136016423 7.6156470301734105
Sn 12.84043443902543 13.395643635168035 12.793275101039528
Sn 13.547692746997052 13.738954765350503 16.107239623228185
Sn 9.194567271239874 14.925334539091088 8.070721636021133
Sn 9.474349260421711 15.873426119656843 12.475242333746717
Sn 16.649877896164526 12.533157115208825 15.90216651810018
Sn 16.063794340558914 13.12694660099337 12.596350752393688
Sn 14.692790714150245 12.774677187130077 9.42183776099645
Sn 11.739617994245856 15.212644419257186 9.891226976803079
Sn 12.624689518819995 16.21300654194817 14.124498138289672
Sn 9.512851480359718 17.532888868097086 9.652354312217374
Sn 15.641767487961602 15.412524078380084 14.661757888767408
Sn 14.350366482601684 15.671558854383841 11.577268881305708
Sn 11.69943844404541 17.79603103461644 11.602956809323228
