42
Energy = -148.14681661 eV
Sn 5.851722950166549 7.500001955734884 4.401733531803243
Sn 8.869467182743167 7.900970938833086 4.379828571443162
Sn 6.539327627308108 10.111829629652405 5.86733750787083
Sn 8.358943819363846 13.873432291695384 7.810278343617051
Sn 13.46551173983911 7.7688921729592835 7.404238602326575
Sn 8.90557658589619 10.995345119330716 4.21333784030965
Sn 6.70686863750499 4.940512832129392 5.8355733912370615
Sn 4.154860034187216 6.54174144168649 6.871847175865642
Sn 12.539874956358167 5.979151708982343 9.86428753618644
Sn 11.615039623834319 9.492205378625298 4.86511093683075
Sn 5.4073734744434026 14.29747850036653 9.159999457914704
Sn 10.4762305219298 7.216213070908826 6.869703540086487
Sn 6.661588555892812 11.50000546124085 8.61285867954424
Sn 9.483180570101839 10.107387086107577 7.2582501530619545
Sn 11.801251152762982 9.446584119387762 9.668994099706785
Sn 7.805182701623585 16.021286083275886 9.875217894617784
Sn 7.116902052763975 7.50536338673684 7.442494163528555
Sn 5.354234599395378 4.236464487498042 8.575367675724978
Sn 14.670680287518124 8.404138562961782 10.349827324778678
Sn 13.378287017755637 10.779151013214756 7.089254075980706
Sn 11.114643264595307 12.502757203235777 5.7777202357477275
Sn 8.172122107642954 13.159293984224954 10.84119904849966
Sn 13.853543457720622 11.227426976627566 11.186969605593228
Sn 8.710803581874178 4.747804187151536 8.162356398702956
Sn 14.419960852779713 12.954391548469607 8.769048137330243
Sn 9.631070434541492 6.912981367919879 10.116719135789086
Sn 11.43909244635208 12.563108878267197 8.859208364846198
Sn 10.136115692871492 9.924450099525746 12.219671550053006
Sn 7.349202389078663 8.978987790700886 10.33298770918249
Sn 12.497056075699804 11.212621646990401 13.918298609008296
Sn 6.021657633838224 14.899651180107064 12.102631172642415
Sn 4.828130409204215 7.130441839148495 9.760098280803257
Sn 13.901858588624544 6.395683878059668 12.595968287293138
Sn 14.786400806062765 9.199317383264631 13.458137860992233
Sn 5.35985550646594 12.00406402111 11.378424769314169
Sn 7.128933914362327 5.077210316115426 10.939497930377165
Sn 11.097601772247694 5.301052499918847 12.56646711304588
Sn 11.85033882765895 8.139777623268317 14.177410671675077
Sn 7.1387260123623975 10.020194589675489 13.096310544074408
Sn 11.085554248311405 12.871957314969382 11.795903897643047
Sn 8.822875526511567 7.160787092567581 13.137687362596358
Sn 5.798549126307681 7.304080103856753 12.697939578858579
