41
Energy = -144.57154692 eV
Sn 14.610101374522802 7.452826787641986 7.399474588499295
Sn 15.450845292984752 8.86337676923515 10.049484395426816
Sn 9.026130485695491 9.645463429422739 16.412768648641567
Sn 11.199577322090859 6.061041470558388 12.076251969824469
Sn 6.241930162136621 12.389895319788856 12.107981117309427
Sn 11.925380125066269 11.971690264818482 7.679890975977216
Sn 14.928722949845215 10.565113514698528 7.382212512456607
Sn 13.441270041696633 14.36423833320543 13.31482822488616
Sn 15.734127936681128 14.453864390300014 11.395700687546798
Sn 13.09004450795943 8.6666245326754 12.615864518909941
Sn 12.47868778603767 9.406476027549994 9.255168474773763
Sn 12.046122746973255 9.106203188141569 16.036353049180125
Sn 6.969121696900963 15.181494362823168 13.24926455725468
Sn 12.62715451221984 11.456269747362784 14.131240239432007
Sn 13.250026589558551 12.284431426753093 10.86062970518643
Sn 12.867695135698732 6.499892593215122 14.735412922258405
Sn 10.518079465396783 12.34477071120762 16.215701492598864
Sn 8.825096936228812 11.686189203790102 10.065810746517412
Sn 12.339826183479842 9.17232219524873 5.947692682496053
Sn 7.2661105132636274 14.61455021915306 10.144655543589506
Sn 9.532647307618463 14.852101235340577 14.924956074503761
Sn 6.521881033108189 9.558178129720744 10.602380583751126
Sn 9.933426270198364 15.30072730938673 11.890246097206003
Sn 9.955793647350388 7.469973593811287 14.488437342362545
Sn 9.696930238978602 11.115705430119997 5.724868546493437
Sn 7.503883317682522 12.578955199852762 15.122206573792909
Sn 7.785531167582617 13.097415095198647 7.167553100323019
Sn 12.791021023688366 15.288836191985821 10.422300339246608
Sn 11.401549212009893 6.887534817735584 7.92929551442511
Sn 7.425942342256009 10.014829408313847 7.64172003546729
Sn 15.560692558554235 11.826654624495825 12.899143550263844
Sn 9.314578432076745 8.113167431179667 6.08203296737863
Sn 10.067586155495016 12.423521494109538 12.97567265724572
Sn 8.167625216227014 9.968483223386432 13.419146359245943
Sn 5.487693864362313 12.169800651862793 9.080110491613846
Sn 16.48206864802777 11.808706886752764 9.880984815557795
Sn 13.488698920002063 6.422734201014726 10.112504222112166
Sn 10.193336842208526 8.898841948847732 11.482262707809923
Sn 8.592804974931422 7.519502810829144 9.294541542623623
Sn 14.562483266509226 13.634309393400722 8.274216904405014
Sn 10.064959368190939 14.230472006559351 8.876218092902592
