42
Energy = -148.43967218 eV
Sn 15.543060607127831 8.217627746802822 6.531850326080096
Sn 12.5651482566817 8.700942459988557 7.26081275682255
Sn 9.526877141575307 10.196252828148033 7.3917745414374485
Sn 6.74788114248598 11.215901813039473 6.732961776327091
Sn 11.8621907843476 11.945503443999053 6.576190899333283
Sn 14.759806143750083 11.020821358722928 7.11113784505474
Sn 8.940852609768827 13.3060043898053 7.4292533420288756
Sn 16.880001955890066 9.443316965586956 9.058005203618789
Sn 14.805604098682192 7.010065408111142 9.180479415363752
Sn 5.635836194200011 12.760065018866674 9.013454869502299
Sn 11.791564668353201 6.961943057777401 9.719416697587032
Sn 9.210764589506793 8.893468793089827 10.075257072611251
Sn 6.341432853424086 9.637779509581623 9.338485523088876
Sn 12.832687026757135 9.682911037663708 10.410232704621121
Sn 10.364342959010614 15.218746200414987 9.335234309290007
Sn 13.367292834524141 13.662242761732049 8.548524850746535
Sn 10.825563700825509 11.982579093403944 9.62869044490896
Sn 7.758113772432447 12.257815585093372 11.319126046111018
Sn 7.3313807374122755 15.112627758999619 9.895396249294727
Sn 15.10001813475728 11.636770482798527 10.151382444896196
Sn 15.500032601280509 8.478004043651087 11.716702670610596
Sn 12.7073017487234 7.521141388960248 12.666891540638561
Sn 4.494043976585215 11.127427603974162 11.301103084839053
Sn 12.588853965349635 14.117036894634811 11.614198435807237
Sn 15.56414976288622 13.854067198385367 12.877994114606238
Sn 10.099578005345991 9.051654169170321 12.85083934473358
Sn 9.391452676285557 15.607050910125752 12.201630209313164
Sn 6.3895238290393666 14.81580854139958 12.85340072542139
Sn 17.08311424157911 11.04141809231502 12.643782659692137
Sn 6.937894929887798 9.39806328827946 12.536188290032271
Sn 13.940231741354477 11.566833642943058 13.79043180080689
Sn 10.599651253441287 12.138943241640769 12.897851737842716
Sn 5.902504474984052 11.964435344087008 13.905352788110962
Sn 15.890885094132031 9.452998133856532 15.174354012162183
Sn 12.786484061269968 9.310858948938561 15.302190840250644
Sn 8.607493848003354 10.658725650548044 15.0491389178144
Sn 8.53674607412774 13.761867574074817 14.760387528722358
Sn 11.443878460950993 14.837323017175711 14.430649142769788
Sn 14.23972836057795 14.188530230019119 15.686917624090247
Sn 16.82679471940288 12.35599694525688 15.48736692811236
Sn 11.598856100964271 12.19526775035438 16.1224229635049
Sn 14.444118851236285 11.456900665504728 17.186276310314703
