42
Energy = -148.48494761 eV
Sn 7.06681913922773 9.823050532724166 3.6518699414128557
Sn 5.586669824714576 11.310096266011751 6.024530895218128
Sn 10.115045829059836 10.164034480109587 3.9236203810083654
Sn 8.726058450639428 7.424282730738022 4.841047145963538
Sn 8.313991266457926 12.514539221948418 4.902637883012296
Sn 9.865770014492126 5.2127927309723265 7.188810076187579
Sn 6.05229720591932 8.125476468954167 6.492656631394658
Sn 12.13384741931358 5.268229079823312 9.455860146891203
Sn 11.318663468707827 8.413079944085206 6.438042422012448
Sn 14.328207742492552 11.363503365428803 7.332306546884397
Sn 8.480401340965166 9.925794995165226 6.604675084009898
Sn 6.5634376829971455 10.065069114762606 9.098172327637796
Sn 11.068368814245458 11.68483315938732 6.8657969310735165
Sn 14.42498579989835 8.459371551940428 8.21275670797702
Sn 10.091318613623885 7.642253605378389 9.131258394887977
Sn 9.409285474137508 14.32701178188183 7.356675701449039
Sn 5.440010048862712 14.097298966988856 10.77096538940067
Sn 9.679033475821488 10.678747933080407 9.536136747107506
Sn 13.610981756905296 13.165676424887332 9.7829057026168
Sn 6.869534486309247 12.977915298178372 8.241180029554727
Sn 12.680751216935525 10.287897680513053 9.773641905778423
Sn 7.3861852661753975 6.291531510687084 8.773055421645497
Sn 8.236524534999887 15.083817531008895 12.059239103366604
Sn 14.570129798144388 8.309151232873075 11.222318345354228
Sn 14.064113792732584 11.35556226904471 12.407896601830233
Sn 10.376769118596556 13.699052294987315 10.070181636871274
Sn 11.126598748087401 6.882003459488842 11.92646837334574
Sn 15.927976697183679 10.817690956762004 9.91096496404911
Sn 7.757913532948447 12.214625622706173 11.353329911859733
Sn 9.282152302340116 3.858535444768788 9.820520938570686
Sn 8.068274167118446 7.688834453795332 11.601987940872355
Sn 4.962777946963504 11.176256684578547 11.89035380053028
Sn 5.976221472988734 13.37582653988877 13.811887835435844
Sn 11.727646293995464 13.605375958529127 12.714109207240059
Sn 10.73447018385888 10.688297244811178 12.52197549675766
Sn 11.41434324826955 3.8511774898295466 12.15056783720406
Sn 12.669477279297306 8.753283139546802 13.70978446735882
Sn 9.03278371345371 12.901268173556833 14.169589840625894
Sn 6.6668229937225325 4.944991530915212 11.435952379394175
Sn 8.968905381784602 5.392154007859516 13.561437613700486
Sn 7.360306537763141 10.31273905294949 13.657262680533368
Sn 8.596080476134048 2.598822626739188 12.33752117026059
