46
Energy = -162.48563093 eV
Sn 11.342442903584187 10.116059101599554 4.795919407223961
Sn 13.660420994558287 11.481395990633407 6.246534775852811
Sn 10.74363941557812 12.645136699438972 6.445422580521182
Sn 8.661214917539077 10.149533784670178 6.586287191799616
Sn 13.375042266252887 8.41632866959465 6.541490694979571
Sn 10.374701651090383 7.447277448854115 6.275230987354307
Sn 11.00341207976406 16.161942403436953 8.41213483551077
Sn 11.41244960727779 10.02332108505067 8.15051016850267
Sn 12.88696215783684 12.78010732853514 8.932191036583932
Sn 9.472003094609358 5.149873983385115 8.207710860804008
Sn 8.602759229826633 14.782654505316899 7.188141152143419
Sn 7.737524639625688 7.617223445976693 8.562542132477835
Sn 12.459125538225505 6.266735416968272 8.713147086005035
Sn 15.4315835213116 10.943361589903962 9.91980237149717
Sn 9.819501323090915 13.224828870760858 9.804026289122893
Sn 8.765308466093819 10.193373375059092 9.958359134584121
Sn 10.347540301319004 18.174340114574758 10.61040998346034
Sn 7.143609648013746 12.406523326006676 8.490819077981945
Sn 13.923707181060779 8.278939864895568 10.904744986962367
Sn 13.686849821340912 15.531066799145965 9.871057828596276
Sn 10.435217617254937 7.536800516596157 10.566131914021206
Sn 16.916990690210657 8.706256115128697 11.41632133019234
Sn 8.24862657645332 16.004069262788807 10.120683655302479
Sn 7.939148261586598 5.725622516076662 11.01822139701511
Sn 6.80427142118945 13.598051197678334 11.363867218771949
Sn 11.266106678320755 15.316548227431207 11.57221272460631
Sn 9.083551481494794 16.942960918116885 13.020098878962552
Sn 17.374845953081476 11.64326657969412 12.259524670860996
Sn 6.646941707413578 10.213039225307456 12.099625015628861
Sn 15.184465550154508 9.675747797755436 13.625562483279865
Sn 12.475997300943156 10.912547778147399 11.301476245215186
Sn 10.749205199001691 4.394718513184434 10.870571448162652
Sn 10.21451527241685 9.266900840475966 13.319921192165141
Sn 12.84843567186098 7.403194967848677 13.653592068924942
Sn 7.566078075933476 14.445369183791312 14.205094357537654
Sn 14.763309514425673 13.209959842147795 11.946727312964079
Sn 9.168038531507447 12.134108401165324 12.74866379964895
Sn 7.524243873500287 7.837650686669234 13.884088449980787
Sn 10.708487349782539 14.428379091632362 14.42409172986826
Sn 15.754884396964217 12.324218390028085 14.811357155920213
Sn 6.965947466077468 11.266112273043447 14.918093684335561
Sn 12.037097468766055 9.457146686544675 15.76479976806839
Sn 10.026096662213881 6.010032995111696 13.330697551152255
Sn 12.842572701061233 12.053516930140205 14.143532589987073
Sn 8.956032228422824 8.995707482452056 16.296294404821385
Sn 9.807062475921255 11.86601866119539 15.860235254598534
