41
Energy = -145.11662075 eV
Sn 11.100808555042338 17.861505918623184 10.865724481251323
Sn 8.983181111834584 16.091250667862813 12.204355330423658
Sn 13.115103939474546 16.359787421085297 15.056260583609312
Sn 10.432436593316762 14.733743385912362 14.896714518061902
Sn 13.597140266404764 13.379200842918136 16.16112715155257
Sn 8.934764575984698 16.70983690933488 8.885378677849545
Sn 8.014432641126325 13.081003047020001 13.141554223185006
Sn 10.138240540256074 11.856985651573922 10.374737279678568
Sn 10.97918279515567 12.148325004946436 13.40281346278296
Sn 13.742961887314998 17.06742762564408 12.228080440524739
Sn 10.867228525552406 12.369996448184578 16.64692188142099
Sn 8.412711219826036 10.160923714117747 13.834634232875239
Sn 15.500332957968398 15.553608556552891 16.856828137066735
Sn 7.792846095783477 14.098339656879036 9.985467768216552
Sn 11.332610903945067 14.716856718744582 10.777512407255326
Sn 16.245826899142624 16.38905868643505 13.960437147713964
Sn 13.533255790720757 14.012631873727491 13.016038919513603
Sn 7.08212382588584 11.179993898426574 10.814493153078075
Sn 11.32832380088198 9.688875221812769 15.114579695463732
Sn 12.025848049921215 16.307564256807634 8.33999227305575
Sn 7.929400034761863 8.103074868410626 11.447602157538022
Sn 10.037715568361907 13.992926979155447 7.859984897422014
Sn 13.739949073198133 10.738308941621796 11.711021465565699
Sn 14.592363855040746 15.001099137398741 10.098135134607592
Sn 9.167464353048766 7.231833437771114 14.368040721771944
Sn 17.37642533741498 13.78913536825419 15.216577617170769
Sn 16.561767755327693 13.844851408275769 12.221095830903444
Sn 11.01675809628826 8.752571595600626 11.743702869877682
Sn 15.425317135399913 11.644769200042148 14.467545266208855
Sn 12.097940302120445 6.572709250331892 13.665783414336282
Sn 11.302774338768167 11.092357209935834 7.5916117840528505
Sn 8.641391378927933 9.740423420019026 8.545034465785873
Sn 13.608842908567732 12.232005505114243 9.200873922905107
Sn 12.978412644313112 8.846480478285567 9.072997621542031
Sn 9.968145697285582 7.0460288542008644 9.204377103275517
Sn 15.919293044480472 10.245336628082647 9.310358948811079
Sn 15.151379351651363 7.972834722140927 11.198765329201711
Sn 9.591138022293201 5.542130260119443 11.806901754443702
Sn 17.01548411638114 10.83167474559983 12.01238306160265
Sn 12.628911614419298 6.160531797600852 10.68022311671586
Sn 14.155760957922697 8.90365611213002 14.081938571637604
