49
Energy = -173.19149136 eV
Sn 13.427699353942472 16.43200250794393 16.3725960921251
Sn 15.49607959020038 16.327245627117605 14.023239163955319
Sn 11.510736325172733 17.931293419699493 14.52404180644227
Sn 11.496989647125776 14.214037324299962 17.59315936833782
Sn 15.41726521675787 14.094424598189866 16.221962967593118
Sn 14.19499849736459 16.124082760651014 11.273719585950959
Sn 15.01945653047911 11.139451422528948 15.736044775110155
Sn 11.746495003881757 17.679128033074242 11.59046509434296
Sn 12.446910315050447 15.089146710431935 13.606008209441537
Sn 9.222821579443197 16.222352581138885 13.81431614224806
Sn 17.827643285753126 14.443184992814656 14.369366194299301
Sn 12.48480425940421 11.365161387766616 17.586973559236935
Sn 8.705761115563751 14.262309041084693 16.168341435315924
Sn 9.337393831729857 11.79810645530666 17.925349599730378
Sn 15.233379003439342 12.961180042828932 13.194482964054853
Sn 13.576603461309139 9.494946587734582 13.751088944283172
Sn 17.394244854764597 14.161530057726186 11.309986612218546
Sn 9.171106453474644 16.586669338293046 10.391320880840095
Sn 13.276928544417293 13.151243500524423 10.563020775910893
Sn 11.114081185143512 12.55049206388242 15.10876902959978
Sn 9.884211417411489 13.881973054936354 11.758767408942
Sn 6.809522948132169 16.957682726387763 12.363065272430115
Sn 17.78641111844141 11.242838615703507 14.479863097667202
Sn 6.630592381195217 14.085590799844864 13.72115763188845
Sn 15.554523381341442 14.72332009328564 9.003603517782471
Sn 16.517805885439383 8.785709259530138 12.865128350601388
Sn 17.744173989028685 11.287760970984927 11.446277246983065
Sn 10.556176312230015 9.561648735992629 16.030391154779725
Sn 8.111000377034102 11.352606609692753 15.103942460412362
Sn 6.947528776860322 14.421541523883036 10.582006342928615
Sn 10.940963350247673 10.922910850117809 12.54007603166396
Sn 15.78254056119524 11.752480811229626 8.657198144997915
Sn 14.136615452847646 10.015265495501364 10.79711010739895
Sn 10.851660000835176 14.21954621513919 8.802104445375738
Sn 7.685099914124206 11.69027519286567 11.893189423654677
Sn 13.017706383907717 12.686032073365192 7.225487583865676
Sn 11.396200246457665 10.772566915395421 9.059584962535808
Sn 14.145135827830563 6.700752136686191 12.407479074865204
Sn 11.774259532086734 7.138088797862476 14.159404077151738
Sn 9.213654071314124 8.461731291402568 13.045071679942344
Sn 11.25692899715943 6.831423527520508 10.993255274739266
Sn 16.942362668500774 8.981955930152505 9.787298853505892
Sn 8.568461325775067 12.279409306678259 8.897970508395103
Sn 13.812287188671851 9.475587637059558 7.319312276772011
Sn 9.021584549193713 9.027045580278642 10.03299623685773
Sn 11.365103431026581 10.272699566266473 5.844930114100804
Sn 14.013409318657407 7.255089429572051 9.423185452923256
Sn 11.096848337897864 7.7248641368045226 7.816513725289391
Sn 8.68182265340899 9.79653215047908 7.1317989967748865
