43
Energy = -151.43839267 eV
Sn 11.615560188921437 3.561716060562789 7.29543065441598
Sn 9.578290334846583 4.580509137834921 5.332993034919966
Sn 8.605020950952522 3.694838503501347 8.183246614051985
Sn 10.869602488328681 4.638369934004431 10.104477867680933
Sn 12.354250532839416 8.81430485943029 5.542668250390051
Sn 10.717820852863872 6.681458393793145 7.216224636242002
Sn 13.491112789502191 5.8596504008580075 8.22172259782073
Sn 7.683012569086344 6.422772492891762 6.870415034214836
Sn 8.088057388310762 6.180560232547117 9.999635908630859
Sn 9.486784589259475 9.721856283433596 6.014837089151289
Sn 13.388783196778771 5.836114287585782 11.240354279511095
Sn 14.727625758956432 10.169600682178242 6.936601733736083
Sn 11.011378832058925 7.851774076463879 10.391989982102986
Sn 11.845677664705146 10.207109697565599 8.334729909547418
Sn 8.986215645382083 6.284367485823788 13.13447202201292
Sn 12.307388372516133 11.819007576010558 5.356866539955291
Sn 8.081014910594238 9.022089395577613 8.72417098301254
Sn 14.17950680088323 8.538861191682415 9.527699983571832
Sn 5.107829175615763 9.546377689467539 9.416576298050336
Sn 6.8009154167345685 13.88349239511423 7.283190263583235
Sn 11.40624730787368 14.393911530756675 6.863319710548832
Sn 9.865328026444118 13.404107280288258 14.579361986639638
Sn 9.226214187796478 15.669394515939366 12.47729988726376
Sn 7.161703789363737 13.27845716206655 12.976785552075658
Sn 7.940708953671104 10.905841956505043 15.298397898535285
Sn 12.108241917041427 14.618651733623231 12.508829184033564
Sn 10.142925950878249 12.286842615139962 11.714037672330587
Sn 11.239030691748978 10.610267688355592 14.346406346913264
Sn 7.416976997618988 14.942880078093538 10.089208483522487
Sn 6.037880828760911 10.29400233938324 12.878045481328313
Sn 10.580528362203829 14.980227341395615 9.798996617866397
Sn 9.688001931873288 8.32906049930943 15.702472106942311
Sn 13.681471966604699 9.590530066158546 12.38184675391575
Sn 8.947440147691344 9.315403884228552 12.647877649666803
Sn 13.200332133736797 12.239619129234137 11.059665925162001
Sn 6.901725701164736 7.878946863795186 14.696572791572313
Sn 13.601754885188287 12.759036135868433 8.107758629974528
Sn 6.977095795683435 11.826694487976823 10.184941309388895
Sn 11.824095806681022 7.330162010898915 13.414424203626533
Sn 4.384184273375985 12.309806155013428 8.523778734472124
Sn 6.338110379015437 10.85802542708897 6.703544819570694
Sn 9.065467109920364 12.740035956667183 5.5450399511424555
Sn 9.504251563900475 12.288831533259655 8.538651788279596
