45
Energy = -159.11413482 eV
Sn 8.973906029818657 11.284883905234281 16.748273323302694
Sn 9.105214833043885 14.191783677041744 12.033289311408957
Sn 6.521041922200521 12.911239673640829 16.19651806589882
Sn 12.439810471264636 7.937934022995314 6.27782587769145
Sn 11.538567288359598 12.94187461387948 16.440272751062242
Sn 8.093697176961305 11.59157627413382 13.72329852002444
Sn 5.897223447795734 9.379693885464192 12.525759641270495
Sn 14.663589380673379 13.027318996870202 15.563547673313977
Sn 11.829105400476262 16.184375443541118 7.393542131206938
Sn 13.805306169465831 12.1541022813112 12.526453555841092
Sn 8.38664599886352 9.161947733422295 10.45648864413732
Sn 11.991517577128825 13.544443090474363 9.455513488468595
Sn 13.624752810552076 10.808124201609251 5.8829314321089585
Sn 11.180018115733176 9.928133172358695 15.097298293217165
Sn 13.653118080929115 8.857118577731034 12.167690240417603
Sn 13.56595008787757 10.629843266037483 9.57206823664981
Sn 11.136047037701111 10.29872762016526 7.888604567526059
Sn 6.466132527650993 14.431994144492137 13.53451677441376
Sn 10.879371852602102 7.457978429046252 11.432524309271221
Sn 8.569763226377246 8.08285277442024 13.499783483211186
Sn 10.894186105482104 10.559968109229084 12.163168806524611
Sn 13.912665803970553 15.986013936816347 9.965987791014964
Sn 9.349857581510566 14.499361062785356 7.930475308876628
Sn 9.201537731559535 12.066129906389563 9.895349961912654
Sn 15.044075438335474 15.170480214045151 13.520241910240845
Sn 15.97303868914325 11.680675001672032 8.194730730601524
Sn 13.483383577933333 10.53968529721707 16.889195667307202
Sn 10.16322280150405 7.487403569584324 8.361904994095966
Sn 16.081049107132863 8.91214460250296 10.248566693395768
Sn 6.250587644964718 9.694547364093177 15.667365451508697
Sn 15.775964051301644 13.618091088269232 10.825101561894636
Sn 9.04761174924295 8.322689693672277 16.53443162917079
Sn 14.101779753112293 14.012848874153736 7.239552946984559
Sn 6.270080595254513 12.266584165992832 11.28381935966134
Sn 17.858718067422796 14.327635271529125 12.888973423166034
Sn 17.149440961580694 11.259974419177846 12.260211018852306
Sn 13.267202816165462 7.373075569622578 9.238274015773527
Sn 10.630917178851801 16.21416719809465 10.239016674406379
Sn 12.535761412803161 16.544918754670352 12.76229025252509
Sn 15.346703004156844 10.17644267797754 14.482403495568978
Sn 11.585531375021597 13.836096198796824 13.615299064938153
Sn 11.417866149044285 13.046400114172943 6.277587729598422
Sn 17.53493879805174 12.312335362436668 15.157712992066793
Sn 4.678958590558616 11.868607726494739 13.902054980903532
Sn 15.389117991396635 8.682754447711133 7.305059629543829
