42
Energy = -147.99502792 eV
Sn 9.25054922571496 12.1846729230025 4.854165118936667
Sn 11.228147517181759 9.844832038621078 4.264467117527997
Sn 11.921221720840277 8.085424435797954 6.665788960447414
Sn 8.736373728417885 8.615010794917936 5.818593023006941
Sn 12.374461993024408 13.023963897640982 5.288812122627397
Sn 14.054257965431997 10.211061211831739 5.81032823129128
Sn 9.961475323993968 14.828847539679586 6.261905257931839
Sn 12.953292363655576 6.454481538777227 10.441565019780883
Sn 7.539805281874198 10.986213432065245 7.243845125101818
Sn 5.008790895437556 9.184157435129093 7.328200595199051
Sn 7.5397597785606685 13.917914831156823 7.905190240166396
Sn 10.999486037941235 8.997523250801802 9.582456748806758
Sn 6.344780258631024 6.4701271812963705 6.925603453681005
Sn 10.88817520628629 11.089418697498315 7.246992590567557
Sn 4.271655224325767 6.77743770532802 9.354962105022148
Sn 9.394686725021936 6.610480481999276 8.13069569892314
Sn 13.74766446373773 12.242332719912502 8.043201439280246
Sn 7.25304294556684 8.373894569141369 9.32958014245376
Sn 12.47446550929322 14.996577745053601 7.883121461764859
Sn 10.310041031736406 13.99069996176042 9.79560981592653
Sn 14.144794312858332 9.12684887396648 8.826637273403833
Sn 12.59407509305357 11.389102449545815 10.683592574868216
Sn 6.918433085330119 5.275565928709106 9.851744242563813
Sn 7.477299470775853 14.615366380877205 10.840442970980545
Sn 4.72067329835354 9.68719276844541 10.414054275041682
Sn 8.667556366288268 11.557996491399965 10.01066494466765
Sn 8.327230832721419 9.333852865198628 12.378665866470715
Sn 12.024946424724638 13.803297813829355 12.793557927310648
Sn 15.147676562763476 7.272784580749475 12.462230601676772
Sn 10.07294374886244 6.5332308484193335 11.797822178964358
Sn 12.211488148319598 8.637840211928907 12.526824045101337
Sn 14.664302661617903 10.293340208209198 12.799921259209196
Sn 6.386656245035859 12.063378200481504 12.034125867993192
Sn 5.920010971478746 7.266719999922891 11.933436063402265
Sn 10.461022393413792 11.305302145364584 13.127273621685438
Sn 12.730263802340541 5.480553048031072 13.48985891832488
Sn 7.807557901715129 11.377331315528545 14.739815716035071
Sn 8.993057102165263 13.936463275525334 13.502541900649842
Sn 10.596156205909171 7.296816635261895 14.776235349141311
Sn 13.64683657999686 8.12950020281845 15.162135141472048
Sn 12.920425968224658 11.753396174071117 14.928273651747364
Sn 10.49159702761559 10.156184590541999 15.922198741082731
