40
Energy = -140.55267219 eV
Sn 11.0336803313207 18.049157875347944 10.585092214162813
Sn 8.239122408413 16.657150738123367 10.794755266179527
Sn 10.0673284950303 17.043545412844395 13.395411325871978
Sn 10.30152712551084 15.83871853372693 8.48534838183821
Sn 6.002002204327221 14.288428988101385 11.271832192376841
Sn 8.49547640237634 13.637924429016135 9.731463219087717
Sn 13.353167714824037 16.104099120372467 9.569910357163694
Sn 8.338487072329094 14.471533011624217 13.146085595784049
Sn 13.208736167227432 16.842035816559 12.588375401077252
Sn 11.268604649727969 14.772666273821326 11.399106374901969
Sn 12.035689461223141 14.979657524937153 15.070821742872596
Sn 6.324417548599315 11.374057179218067 11.97852036539302
Sn 12.385302145060365 13.28736446253644 8.119355807330482
Sn 9.942763956588522 11.926074979045893 12.028005475479073
Sn 12.830931187711576 12.387898819885844 13.661607629041075
Sn 15.454482614636447 13.368700955359218 8.692228245244252
Sn 15.142238311711063 14.867385945253991 14.8257338834114
Sn 10.101046048538544 11.071630840669483 9.0599230321374
Sn 9.805657869101022 12.52420360761459 15.059022967837219
Sn 15.192275290119202 13.894428521420833 11.806374616488677
Sn 12.984916500073385 11.656058447034605 10.635691980045582
Sn 13.998950426487761 10.578307212205793 7.522300708316545
Sn 17.009910064268567 12.308204482512435 13.857287735121854
Sn 13.52180173684465 12.889969597177034 17.00163961717627
Sn 8.334071018076836 9.42595703686583 10.948621239723508
Sn 16.928250797640047 10.870796062549035 7.9066442926877825
Sn 17.160304777295433 11.583347820364077 10.907056763587242
Sn 16.478910140621345 13.052206177481464 16.814325574859808
Sn 11.350599579865474 9.112994503443469 12.784125232922968
Sn 8.174666728559883 10.16722439005307 13.977188887024058
Sn 12.328803116005846 8.85758083489351 9.502685328684787
Sn 15.030582192468014 10.156806874565815 12.717297567424422
Sn 15.562882994380246 8.899817756378921 9.83087261148034
Sn 15.272426828137831 10.378378057703914 15.894098152992912
Sn 12.021769569296977 10.403885210850378 15.886705058371026
Sn 10.121086899304068 6.931942631163984 10.78350104588312
Sn 13.580784982100981 7.095507922207453 11.813056212203866
Sn 13.456664656461184 7.817095007025716 14.757761480636855
Sn 9.882586175950944 8.075614181043678 15.43434332799072
Sn 11.035666310933452 6.098736388340608 13.507061418170379
