46
Energy = -162.71859439 eV
Sn 11.81658257509251 10.37322353718603 6.187294865658691
Sn 6.77041557909925 14.188313837801182 11.861385220008156
Sn 4.965732249154832 9.630878427397091 8.07140124017789
Sn 6.119208768354178 5.767101474240354 10.68127580736328
Sn 8.397798019495795 5.417926504280165 12.636901134654941
Sn 13.59826556346697 9.370623577228502 15.415065316480097
Sn 4.237332424058857 12.580333652993145 8.46755697571871
Sn 10.75073390199967 13.092980834667403 15.02908709496374
Sn 11.413874379499223 7.380817186663154 6.222852319401432
Sn 11.250044384747227 6.036238486718243 9.070389133773979
Sn 15.446105233066262 8.79235069657135 12.986811690437007
Sn 10.460215624738586 7.53614968280766 11.797060169581686
Sn 8.562407750532156 10.859781583131534 6.758069894852298
Sn 13.702788077256837 12.329192039624054 14.476823169194954
Sn 14.35820507790531 10.889079118569704 8.486858854942133
Sn 8.84232097511367 5.856607483477232 7.057463957521606
Sn 8.873239327439485 10.651046727285793 14.876850234823133
Sn 11.072190619434409 4.375796993099916 11.535616046890263
Sn 7.670112606136605 13.59575702712027 14.738143876932753
Sn 14.977153858135948 6.460346066881214 10.904506132860893
Sn 10.044562403287745 12.023726603434893 4.026236410232202
Sn 7.529063297845769 8.327281401685081 11.689547128269698
Sn 12.24599014506134 13.208839051554403 11.892130423942481
Sn 9.660799113976605 14.9984136497958 12.761894187232711
Sn 15.215159287604381 11.518287222733475 11.432850685563356
Sn 10.110047930092811 8.900051237463622 8.789598612661935
Sn 6.372179743353723 14.658129543217633 8.857699803745872
Sn 9.306556377150088 14.169307883566344 9.1330199813131
Sn 13.201224932165433 9.12391671689895 10.81985013592733
Sn 16.486744746572906 9.041279604893573 10.103457490765534
Sn 7.984490477334857 13.844923536700023 6.069210597875492
Sn 9.236896294873034 12.039687948791016 11.93720537327422
Sn 8.587965056480977 4.301203903719886 9.684053487131848
Sn 7.142437764663323 11.09487597227968 3.4864472354868434
Sn 9.304687360356915 8.980737310651422 4.3568751452438494
Sn 7.269275465417297 7.790424461196201 8.703041069330848
Sn 14.148250908028244 7.769521682707026 8.237846389319081
Sn 11.380956862830438 11.689718426372067 9.23827051565327
Sn 10.947622484940158 13.404851521684053 6.616989369823341
Sn 7.070854786639388 11.682594701509576 9.597201935207323
Sn 6.4191466408359865 11.21119897906859 12.899525673240415
Sn 10.914592857105166 8.05107022178576 14.923626248296847
Sn 12.968206876895554 6.429764966802749 13.291996482802032
Sn 11.59879038506026 10.462229536326415 13.24772214272952
Sn 6.503434398117694 8.729720596988324 5.551171513494004
Sn 5.5793165389259345 11.877678510771954 5.905098955542875
