46
Energy = -162.36212639 eV
Sn 9.660279768221026 10.07421015029647 4.849207090699161
Sn 11.031494009948622 13.113393602847438 5.035092095054561
Sn 7.825586330246363 12.72635752758093 5.8403600839407295
Sn 11.878160153600312 8.268236567713744 5.732804270611706
Sn 7.059786128542018 8.5217079706254 5.615090350746354
Sn 9.456142498041686 15.310248513364183 6.553070753421942
Sn 9.36217878476938 6.490988195249977 5.393597614544447
Sn 4.719419390251198 12.93163223348497 7.209634680886934
Sn 9.579063681817782 8.87764881543262 7.761897423913764
Sn 12.408223964379735 14.573555537656404 7.433276457662441
Sn 4.753196019164712 7.834362630463548 7.855501890648732
Sn 13.06566003114139 7.927971166291274 8.559477040788288
Sn 12.896545689309207 11.465838595955846 6.851279612869599
Sn 13.984248981317151 5.426008490995733 10.408622476824567
Sn 9.976096003767967 12.264507060072605 7.984518651213474
Sn 7.033052091393226 14.600959548734716 8.402940054589706
Sn 6.501756125310614 10.57206954315698 7.816953541268298
Sn 3.59276532024963 10.504693393670278 8.872250048727912
Sn 7.53994935426269 6.374893086413991 7.904550029246598
Sn 8.890507391465658 4.998591613639465 10.46142690768006
Sn 10.724767275278003 5.958735928267359 8.048238550556908
Sn 14.703799317401824 12.964911021021097 8.887431778178078
Sn 10.087230801089282 14.942869863866134 9.61456685499149
Sn 12.688685333347546 13.854663202695505 10.91677959136186
Sn 15.49655920722192 10.679361887876 10.916253636142118
Sn 12.733194102137894 10.678532280469621 9.794670213499604
Sn 5.746528312082422 7.720110661044212 10.619221007768923
Sn 12.517877545293572 7.889945953810693 11.697405205471194
Sn 10.449293889216769 11.69481888281128 11.454724439200962
Sn 15.6680449851499 7.668158267987146 11.740173868945611
Sn 9.292994991394306 7.916067953590764 11.255963022353985
Sn 11.513393980839428 4.933011651338067 12.080569091470513
Sn 5.2139816512159145 12.71986452861551 10.286062810189538
Sn 7.947064021391535 13.516443504254246 11.487187739602604
Sn 7.4462708206941945 10.312083950356632 10.65770551451293
Sn 13.987144808009306 11.675305583382999 13.26456144850027
Sn 7.005906473197086 6.0920366582544565 12.638466940472233
Sn 14.309166793554976 5.494885854795853 13.551643678977591
Sn 11.359270371904305 10.121738447443864 13.816164103657837
Sn 14.225820248770935 8.64114515574617 14.281261970392073
Sn 11.795947239654533 13.555338825579154 13.66038035547944
Sn 4.41178346447625 10.077752940103611 11.907482456301615
Sn 11.664289028095356 6.660339921702826 14.477490429492041
Sn 6.729490005788454 11.204287976440138 13.482141732430074
Sn 8.02210002929598 8.571936350760716 13.943477522186317
Sn 10.109012642368013 8.661507560210012 16.042154018595493
