43
Energy = -151.62049366 eV
Sn 12.63737897333878 11.373256983967968 5.829259219952506
Sn 9.907898303761758 12.5559059314108 7.019384949918511
Sn 15.086089733321412 9.705209867679681 6.740364860423379
Sn 15.40876125454277 12.890189301827258 6.540209606027814
Sn 11.93528489661301 9.545499512841204 8.232485270427931
Sn 12.528041763168755 14.268008528724538 6.742466701621021
Sn 17.729166126702236 11.112419858071474 7.701699447037286
Sn 16.815057195896614 8.578514048114522 9.296455912538574
Sn 8.969197772255185 12.942856538722431 9.856367815486633
Sn 8.340971466785868 10.13537212673048 8.567126423807258
Sn 11.998484188696706 12.553642971372149 9.295592020227723
Sn 13.761265306919398 8.211487896108075 10.418970872462523
Sn 13.658170417422708 15.14573547420938 9.454702453453464
Sn 16.66696242625125 13.71982171309364 9.35234604707981
Sn 14.884748988301224 11.130757631022933 9.45677871829748
Sn 11.011115252624991 15.060330623354263 11.144536612241163
Sn 9.907712437023353 7.733914619048391 9.455781375830876
Sn 5.989034921044394 11.383463771864058 10.443184592647793
Sn 17.73001322719887 11.240535587206491 10.840934449533883
Sn 16.1885604070192 8.856979787584356 12.385816046868198
Sn 11.07666232547708 13.028719333878767 13.728387311841889
Sn 7.59837024814806 14.711201645599294 11.877585405019941
Sn 9.637841862782434 16.00864890855933 13.804883774905282
Sn 5.135333861369112 9.902619255872265 13.150944697482982
Sn 10.246292218644871 7.762440311431612 12.658473790116163
Sn 10.39525134918797 10.350357282456065 11.077451086851772
Sn 16.334966256273695 11.563420496461534 13.762806274753345
Sn 14.872832305138523 13.600476285954262 12.036410434910033
Sn 7.45230058374753 8.740134753249842 11.414795262678435
Sn 13.2692834057823 7.930739447180735 13.477041138639645
Sn 13.09316209675061 15.704989203755744 13.368086796002238
Sn 13.337620793560822 10.863294750211603 12.3223069150591
Sn 5.318313746366519 13.0381734319914 13.090055348622425
Sn 7.625087087435524 14.00165072726509 15.085465912724551
Sn 8.20100743499837 11.417674734522407 13.183488873406914
Sn 5.677426996146189 11.494807477486003 15.721583645794869
Sn 10.736449742377493 9.281681526998835 15.370929855271852
Sn 14.121492243731193 13.511206027409823 15.252701592880898
Sn 13.917416628304899 10.281079474028953 15.350717020618621
Sn 8.709370347522013 11.38974179492418 16.533730953540193
Sn 7.64257222386742 8.89762596351137 14.954762433763763
Sn 11.488467372960574 15.087331728673082 16.01626043055498
Sn 11.748274715391387 12.07779357047752 16.77637855353029
