40
Energy = -141.01128182 eV
Sn 14.006630709113264 11.724379738155541 16.68941416286488
Sn 16.404682246671697 10.884286482324216 12.192638088361887
Sn 16.254494094553742 12.82896030244282 14.741708155050462
Sn 15.688121325750751 15.830214319623733 14.1019016473207
Sn 15.043374923273026 14.71537574325141 16.926130699459524
Sn 15.368482601796613 13.744573383944008 11.646953106309796
Sn 14.562599097206453 11.59359985616402 8.938839063289931
Sn 14.43752503016928 8.95611363839983 10.624214147880021
Sn 14.860609314118463 9.703779724837968 14.470038718751425
Sn 12.64267716338975 8.83963328027903 7.998875737895036
Sn 12.380057244760856 17.00082456501458 12.874521099494176
Sn 11.906579155681746 14.22807446115323 17.21319319234992
Sn 13.338606333289446 11.497423397169754 11.912800097767223
Sn 13.096880847323986 14.00256596233598 14.290074351289016
Sn 12.431883226022132 14.69325725328547 10.87690132761271
Sn 13.290423829287391 14.044984659081136 7.622330664609616
Sn 13.141644023588624 16.825351254909965 15.929634868374896
Sn 13.053083294199668 11.277998554673086 6.118174220946229
Sn 12.72897972194848 7.774390326719807 13.059166426009991
Sn 11.84854067394501 10.82256748719411 14.462654691490142
Sn 10.333397578597424 13.082007057535078 12.458435332594126
Sn 9.641137548621208 12.949759415080576 15.488701696658849
Sn 11.22565199433127 11.874921632735273 8.876785654465397
Sn 11.63220270141087 5.967220569309044 10.733804063766971
Sn 10.179279067954203 16.07000028464132 14.981158984674664
Sn 10.82416833948728 13.403597705444676 5.882674251875465
Sn 11.017208392927078 9.233675808018578 10.71329016613526
Sn 9.537783241373521 8.877845062596457 13.815147486980626
Sn 9.537661888933963 16.236600049908624 11.68961200118545
Sn 10.249733978030584 14.963320464897924 8.553566175413952
Sn 10.120600631971165 10.189001748859388 6.358261958647328
Sn 10.447477309466263 5.986414333403952 13.842822431581185
Sn 7.852324765362639 14.58156269488578 13.61858614706788
Sn 9.900627216580498 7.19891072924946 8.528562065084081
Sn 8.022760512805835 13.686510038745528 10.551930375065847
Sn 8.345598413470437 12.471761895858322 7.531354571417053
Sn 9.376061519243075 4.318931396468462 11.684313033896633
Sn 8.017646865420284 9.597275318344954 8.775798399222863
Sn 8.422590728654137 10.69194528001725 11.547536881466597
Sn 8.520332168066991 7.148926456201677 11.36376330431096
