44
Energy = -155.27005349 eV
Sn 15.40492330069315 11.36891031210663 13.868464247185274
Sn 14.879047116344505 9.379004752591644 16.41791834806925
Sn 14.547161167016222 14.409872750559895 15.192672588669394
Sn 12.757445492250802 11.503313983907356 15.366272216517764
Sn 12.98073047131122 17.281999547746697 14.721970713438248
Sn 12.200864147133345 9.477200619207267 17.800470007707176
Sn 11.605789794106377 14.806159300527769 15.916055517994337
Sn 10.295669009607408 11.926213289279572 17.2025023995007
Sn 16.590132953235663 10.408100603748005 10.93522473795161
Sn 14.715573947377552 12.927302365963563 10.716682302551675
Sn 15.06289189836616 16.076591283148684 12.673732179590951
Sn 12.47615327423915 17.192199659851685 11.55514268601996
Sn 15.40802398277466 8.27941417240856 13.534011942322373
Sn 17.29760327984345 12.870502888077803 8.923895595903417
Sn 15.757465040707535 15.53223835217175 9.418013710346626
Sn 13.27730337982017 10.052885349622303 11.85596096509252
Sn 12.520681784439846 7.918768961692782 15.113417784009977
Sn 12.529694679889666 14.290472282522684 12.90401962446518
Sn 9.542100961774793 8.731241582874363 16.50042547990946
Sn 10.639845108384076 10.17619618348846 13.560307703698085
Sn 8.694269465467217 14.036680131684157 15.371643038858247
Sn 10.213052321586616 16.53804882796909 13.58074528815086
Sn 14.685365036350996 8.170745985113406 9.926231819038144
Sn 12.916044092654188 6.937321945152393 12.26639935372443
Sn 12.67040654460497 14.975597338298181 9.210744704359222
Sn 14.899113124823149 13.673719861194343 7.087085157242978
Sn 7.827154542527951 11.004430505308358 15.561150977582443
Sn 8.758154505298553 12.548803071421863 12.791603967930337
Sn 10.179428047542789 14.688600964407966 11.031903050690264
Sn 12.447082271087883 11.809624823157366 8.956016931126191
Sn 15.275767318941275 10.786129929297616 8.009567945996334
Sn 8.431764386878335 8.128656721745084 13.693787873928123
Sn 9.814662735606708 10.98071279410502 10.323066546123352
Sn 11.92922909113258 8.7929246347242 8.739927715047365
Sn 10.16594408003644 7.994785797530513 11.149300847225614
Sn 11.651334277562631 13.617005487106708 6.631365725490466
Sn 8.918182588172057 13.130139711095413 8.358647061634265
Sn 11.924975654736675 10.557239051778417 6.1376790901665785
Sn 6.4190836488738094 10.305403257239705 12.929668409174024
Sn 6.682007857525978 12.24128139517827 10.522444701976179
Sn 9.155106819092275 9.367906247238484 7.417506139042336
Sn 7.246527850873161 9.126786352274591 9.997084231789866
Sn 9.052526027619765 11.76530286485646 5.635513028417735
Sn 6.642697856427415 11.18867751452166 7.553523185121036
