44
Energy = -155.46369764 eV
Sn 10.654978508176763 9.953894630080768 18.280219597223365
Sn 10.095888714526984 13.00026861345298 17.517714685352058
Sn 13.004982227381477 11.82798666633904 17.53740984837928
Sn 10.40306530405512 15.444227443012615 15.026747901978863
Sn 10.270294993619824 8.087093005537142 15.884049034484487
Sn 12.861438257143279 14.868147682069855 17.010311055547554
Sn 13.11305695395351 8.870299980177574 16.636322383732377
Sn 8.920846979032106 10.800018895848769 15.759631960925288
Sn 8.304276459265456 13.850134996635663 12.976449293282943
Sn 15.568403110548779 13.886813082770853 15.642341172450811
Sn 11.285830966281287 12.560322179890536 14.697210330223571
Sn 8.62042341315002 8.432228683865834 12.201720820097277
Sn 10.961978778159633 14.571926742153117 11.161285321312041
Sn 7.052070346430874 10.836693494535298 13.236154993003838
Sn 11.110414873237888 9.722858654767055 13.473256216250972
Sn 13.332794951264047 15.37059350650406 13.986621781687537
Sn 14.127823722998343 11.32009751888696 14.666941652628669
Sn 6.366753286040554 12.732327406758756 10.772902247434589
Sn 7.978440829460226 15.34658443224106 10.196490651587157
Sn 9.592931804300362 11.466064540712333 11.438717115719324
Sn 16.498049605856806 15.665221509015753 13.201847753657901
Sn 11.104727578946637 17.319676447085612 12.547426228783495
Sn 14.167958878094813 18.00170211184935 12.901126098264742
Sn 18.915801681624362 14.29527279412138 11.853693421178537
Sn 13.928078329156229 13.134004694980382 12.165964409284713
Sn 9.702155691735802 8.253244037819723 9.315781623681175
Sn 12.905537038920286 11.01997716774017 10.167257405695118
Sn 10.433296765883313 17.372303044337205 9.564592967934908
Sn 7.285412457914264 10.007641726018473 9.728449353872461
Sn 13.288436237559814 16.841851382971356 10.334740577097957
Sn 13.950548576969988 8.494456592200134 13.473061858104797
Sn 17.058578508295586 12.36067490122112 13.130915311720948
Sn 7.767602265628272 12.970112525769578 8.06159019671401
Sn 13.399192455606878 14.111909201946553 9.089370819236372
Sn 15.724623425821735 10.242504236249294 11.34230110730521
Sn 12.40436315837599 8.069845310104235 10.755459470249603
Sn 16.22932265067781 14.342800922429364 10.392816558325618
Sn 10.266525852361074 11.252209493392153 8.500985672480398
Sn 15.43562063814594 11.452478952263046 8.366635841032997
Sn 10.331670990460793 14.636698027423824 8.117872860713081
Sn 14.158858067470986 8.587057650040867 8.317585888713213
Sn 18.131614353285652 11.903278365774748 10.062039860183614
Sn 15.401987314483515 7.157279404725639 10.78313223612832
Sn 17.138724993544876 8.825585960423304 8.982060838187717
