46
Energy = -162.47239017 eV
Sn 5.596172965371444 14.560030484635838 6.81529919012536
Sn 5.99164892479134 7.951150618809118 12.799437403298418
Sn 11.348811920812622 4.104797186669441 9.034624723162088
Sn 10.644764691816533 7.3628604886677165 5.376239790297664
Sn 7.80737811004059 13.986355957393853 11.498366519585899
Sn 10.257454303018275 7.684301202361729 14.936690459112107
Sn 13.026809772244077 9.069760326568488 6.859327254287288
Sn 5.886999177329121 9.155509851379076 4.837579961940102
Sn 12.765829408465434 6.344353449723434 13.59835030221788
Sn 5.322821525584911 13.859300622931507 9.734177560165751
Sn 9.729605098581546 11.619043150390741 11.173581373558292
Sn 13.399685264126168 4.27611875380157 11.24652691242897
Sn 8.875293741881697 13.984017074219407 6.106725620325458
Sn 10.697804335424859 14.750816465325672 11.08018429746356
Sn 12.399539946954421 9.649012212788124 13.793834462855148
Sn 6.654780559743478 12.00893928440985 5.333987750065147
Sn 9.680110487703464 10.807723747021313 14.907241806194651
Sn 9.62775816470043 4.665618180393992 6.558893992945277
Sn 11.35401245976496 10.802034714450258 8.769310068591848
Sn 13.546421230651012 6.266593473261896 8.753051468653751
Sn 8.97821935666174 9.652734283298559 4.228355456516288
Sn 6.0631062702673 5.0562089625591025 11.037714063238072
Sn 7.708793970853277 6.6805204603682045 5.044981231008195
Sn 11.381636198220527 11.71080522200879 5.887014263129735
Sn 7.886029298547588 7.253535444581645 10.036196124887185
Sn 10.659517356408736 7.21007693720898 8.470390897371237
Sn 11.94997607252609 8.298573838939634 11.143129031181694
Sn 6.3233934488898775 9.978241866741023 10.154718461157326
Sn 5.810920135380711 7.646749425335968 7.451497860733634
Sn 11.627722562840475 12.684074548992765 13.266312072239211
Sn 8.380296705773489 9.308735567610443 7.128337159501334
Sn 7.070295190934875 11.1222436631884 12.964690918742294
Sn 13.966178340225943 12.415554443263105 7.380844455908708
Sn 9.08201827094995 8.832276239722866 12.390907991438349
Sn 7.033735275908825 5.000854637867065 8.08110787261362
Sn 4.758982532763326 11.606979526560192 7.753093178997702
Sn 14.220945470504331 10.076724341803585 9.756927668596788
Sn 14.799052565165447 7.092632983679846 11.373678965637938
Sn 7.796733172648872 12.31928945708668 8.446942064448336
Sn 4.396262578773323 7.5791817044098595 10.255534132930741
Sn 7.846945682862999 15.526180985189612 8.635179961649422
Sn 10.579078425572149 5.594556147731679 11.629998474386595
Sn 8.102569324482053 5.839996070331407 13.363082427190362
Sn 11.31132158259194 14.039861487422561 8.046704617003039
Sn 14.41884511493784 11.533341324057982 12.591978891600183
Sn 13.245473816948719 13.043483995482434 10.279001651262389
