43
Energy = -151.40475197 eV
Sn 6.789437410113999 8.799718728199583 8.282577309739825
Sn 7.159270883645244 10.966352057324915 12.48544406202173
Sn 9.446095390371903 7.141901900836234 9.251408848992677
Sn 7.280309200136015 8.146251301330345 11.165447001043441
Sn 7.664344775155712 13.991909004169527 13.155242759974234
Sn 8.439705363527114 7.1834678834656565 6.464293275101269
Sn 6.569534976452797 12.985313294350897 10.023526856379506
Sn 9.389976817889476 11.890722260555256 14.666106556594192
Sn 9.666118377429747 7.400597822890827 13.269146976702428
Sn 8.761491133306924 10.738524952608254 9.829182777847299
Sn 7.951912366647165 15.68030086750178 10.61926443358515
Sn 9.724351421810551 9.016728581288445 15.831726263698402
Sn 11.500129755291214 9.305597963471849 9.850252233347355
Sn 10.303788116740167 14.830989998985705 14.833744389068146
Sn 12.168811273777438 12.802691916213904 16.792362801263536
Sn 10.051913109291348 9.599732856452357 6.870381743293655
Sn 7.073615134387994 11.655032391677537 7.258726657093701
Sn 11.748857754095683 6.680587169141624 15.544821005519134
Sn 10.307058249386971 13.46840014579787 11.615346030408269
Sn 10.96586553241371 16.11329849960205 10.049448103353653
Sn 10.876252096301762 10.150002535738928 12.742949314013744
Sn 12.556932840419789 9.846964125885952 15.542455467868885
Sn 9.037342792179638 14.1380428830605 8.242179285350879
Sn 9.722749646998825 12.420728309880975 5.8561237512281
Sn 12.912321303725722 12.835160728391566 13.822673450761709
Sn 12.549644267084544 6.9659326927840475 12.45741339019416
Sn 14.539706273939956 7.536248959372226 14.708438017357059
Sn 13.222955132415878 15.534107917197762 15.976223217536763
Sn 11.479482073964387 12.19213631251802 8.459360459520685
Sn 12.458681543618845 15.775005525752029 12.828375381909664
Sn 14.014630368394842 9.805783336139992 12.610055311086088
Sn 15.255972501070328 13.24340065000616 16.35708250051988
Sn 13.0177327987801 15.074745322646631 8.06333454147197
Sn 13.23130458494182 9.715633335709223 7.368335535642399
Sn 13.713667032063379 12.860907826642352 10.452030253617089
Sn 14.39764977458449 12.55530824451134 7.170597382424824
Sn 14.656103871276056 8.514055050569425 9.944380961211111
Sn 15.540161488836796 10.175313269667683 16.142235335178025
Sn 15.404334492913453 14.995599689868198 13.75477535404596
Sn 16.048358650366634 11.851123365757024 13.624324858582144
Sn 15.875807250381506 11.10869264677765 9.264737813993076
Sn 14.681214291663013 15.748462162956784 10.554529096670711
Sn 16.74703382369534 13.419957620618876 11.08766836230784
