48
Energy = -169.850881 eV
Sn 11.317075098975273 8.260520559492232 5.366838508825187
Sn 14.19847541654728 9.4859232361495 5.561783481402409
Sn 13.955703487244689 6.421328196187479 5.880524480714502
Sn 11.851901027957473 11.12299832639194 6.859658104144613
Sn 8.586839487057652 9.200896417384865 7.364327690116149
Sn 5.631913055270057 10.30143156930246 6.944501042605431
Sn 11.11924537804975 5.434475098546465 6.898530535132383
Sn 15.694184226612991 8.073856025327341 7.914973680983765
Sn 9.340559883679225 15.389121018444484 7.546675544254537
Sn 5.078108741382869 11.954050475724888 9.614814991025392
Sn 11.89514651480362 14.34330783759928 6.198215308148496
Sn 12.356879768473934 8.253532352464497 8.28017176701874
Sn 9.49183844091402 6.963584031283045 9.18167300974789
Sn 7.910892772656927 12.313703570007775 7.889456979470644
Sn 10.211533617452938 10.763104937605474 9.62964820231401
Sn 13.670758435436241 5.43982348077803 8.820157156854538
Sn 14.497189555168466 10.89992927423154 8.431041032855031
Sn 3.5944931191771134 9.308492342862909 8.936002699216315
Sn 7.912198940087146 4.423480603816801 9.155238257866902
Sn 6.155379260373947 7.232092923105624 8.094205851977671
Sn 6.655838058999696 14.573417841482472 9.592178088717887
Sn 11.281702244721641 13.539409732592459 9.115469591458222
Sn 6.882652043777412 9.409169593358698 10.282677834628299
Sn 12.221315068951887 16.750379771223933 8.185493753603428
Sn 12.922077179283656 10.78454903266591 11.122290161251398
Sn 14.139448756123988 14.227623572807035 8.281956675795996
Sn 8.19345929820144 12.42615841818212 11.293110042102988
Sn 10.921646348479394 4.3785520435901395 9.91888023531127
Sn 10.199829416450765 15.997385914578782 10.42768091419597
Sn 4.301884479934443 10.01804824834861 11.91333993177842
Sn 7.9060440730490225 15.358200267602676 12.244136003529999
Sn 11.735350465776886 6.544705636168811 12.016233917181388
Sn 10.416095068346522 11.284565936205711 13.363170046525688
Sn 4.759303890752788 7.149588707983586 10.899497671193924
Sn 9.53839702445668 8.573283021861936 11.814021098603298
Sn 7.510952163476381 6.011021883844394 11.574392325743473
Sn 14.300639126915973 8.021480176717215 10.774116734204979
Sn 13.267789769887564 12.932232949541191 13.197099066519048
Sn 13.099464205124573 15.213430673808407 10.950228224941265
Sn 6.798096757641178 11.080624170976728 13.549900712880289
Sn 9.321934611657722 6.248021197884024 13.931582965360576
Sn 8.524808392071556 13.44980163722033 14.509591107427612
Sn 11.131206991629941 10.116242146274972 16.21771169744571
Sn 12.820590141529122 9.111608003492602 13.796173144663054
Sn 8.661360866825664 9.050971094076742 14.743012365895094
Sn 14.127157512131806 11.274725326460864 15.727370979706867
Sn 15.357673634091071 10.63543482005901 13.09101473090878
Sn 11.352436941412362 13.073186663306847 15.718702412773338
