44
Energy = -155.57416455 eV
Sn 7.789923378895006 11.328488244639496 4.4775749426478555
Sn 8.155677635159757 8.112537273127314 5.338490596679806
Sn 10.499483116761446 9.825699273254138 4.08819120531878
Sn 7.6335599873496 14.31740156329079 5.2646318884890455
Sn 5.0879567813470965 12.747982276800759 5.488361634464357
Sn 10.401310978516973 13.011977789848668 5.264233355536254
Sn 5.459681100386963 9.632805468948863 5.655951723598247
Sn 13.961418373452894 10.474035911107965 9.447741202858879
Sn 9.904552850058504 10.558730052825549 7.1519121261525695
Sn 11.337679696256773 7.718763319304424 6.273543006405186
Sn 9.472185294614778 5.034456603468895 9.806895225182256
Sn 14.237740437583009 7.862329223364509 7.767089375331786
Sn 6.106931300710738 14.006287103186681 8.126126643622449
Sn 7.587282277917681 6.187088411891771 7.723512186963168
Sn 12.922328800151737 10.371768848764923 6.274431954735857
Sn 12.1431571372227 5.71144197940729 8.427387042535743
Sn 4.54606412346466 11.264747876016427 8.172293386998994
Sn 9.39882702212125 14.565398638143755 7.937650506248864
Sn 12.067234739091079 12.912121426072236 8.015766518722879
Sn 8.084542869054546 11.966137348497048 9.224794692328084
Sn 6.938949279523286 9.094903054910882 8.38570547479605
Sn 5.202353794331959 6.757654636796874 9.835233326122156
Sn 10.92499390603856 10.779532327061517 10.61585242255444
Sn 16.015231662901506 8.224031254163963 10.504381572363469
Sn 5.481342212365554 12.387877337474647 10.97179181562368
Sn 9.900837560692235 7.958583472273322 9.132646794010308
Sn 13.271215592541985 12.979415365194095 11.083846106670897
Sn 10.34536851410137 14.034860557590049 10.830399697721148
Sn 7.023291526120595 5.510349871600613 12.056234460360763
Sn 4.155646519781223 9.45173917255569 10.920788906420379
Sn 14.26086704752952 5.697055507579797 10.75739970868046
Sn 7.262218214678376 8.611069453406408 11.452850715587639
Sn 15.115796711152653 10.290698795631217 12.719309608934255
Sn 9.906062265136649 6.979995507320841 12.281829430972298
Sn 12.882319648412857 8.342058369180183 11.487576888969983
Sn 4.600170213194558 7.130298654130901 13.022516476476621
Sn 8.339268222860625 12.245110198919802 12.232290712924284
Sn 12.170197761188597 11.460985215654873 13.495421224762858
Sn 15.53746226415386 7.177858378173529 13.357355125757639
Sn 9.668713559348237 9.789182005500276 13.496955378304461
Sn 7.355694975611763 7.537069922113593 14.448061578234748
Sn 5.711741632356645 10.00347930178641 13.610832979499799
Sn 12.654888928684786 5.928482760693936 13.42139291986411
Sn 13.181187265985486 8.720867427134431 14.656104638375165
