42
Energy = -148.02752698 eV
Sn 11.533057232675167 7.7219580660108065 14.079808131327637
Sn 14.69654699724741 8.118068510996295 14.277823009729012
Sn 17.708112379068883 8.700953676377289 14.414262204258739
Sn 8.390375704484526 7.223430603938077 13.966343798641114
Sn 7.2834105884893585 7.611010946684225 11.128053063501866
Sn 13.119494736834142 9.517242480866894 11.951217074725006
Sn 12.642738456051273 10.36135770789679 15.498695079989966
Sn 16.27716848628171 8.961115879498184 11.623157180387345
Sn 15.893566359098303 10.887025548142722 15.335464051811547
Sn 9.313893901413309 10.020767427873553 15.048977144411836
Sn 10.282424341771959 6.774299894547392 11.398850805988907
Sn 14.57812612547099 10.38236663965669 8.858317980043697
Sn 11.780578968794954 8.935531268280128 9.090978690844887
Sn 6.654928527801316 9.722753175567073 13.364481553329266
Sn 12.50626766006334 10.748583535303805 6.573294120147099
Sn 11.239188240204479 11.946131764906 13.092457671913502
Sn 18.020711765412123 11.405130369236348 13.036099246052613
Sn 15.344513350520616 13.189181743149566 17.19371219830448
Sn 7.176675235430824 10.686716264784447 10.221524552277659
Sn 14.842961673539653 11.994298092247183 12.5603613446884
Sn 13.171101119053995 13.776718987066879 15.332890283084323
Sn 9.540806557658124 9.624455628604789 11.930588741041335
Sn 16.564997293029762 13.94269281934399 14.299995301608888
Sn 15.338276427582594 16.112004887525877 16.026613576397306
Sn 9.830466674511191 11.146209302814631 8.393731423748402
Sn 12.33203034727669 12.226223006435378 9.758542855172324
Sn 16.984192340080888 11.827230422128432 10.215773068632085
Sn 8.583218300409625 13.341429659053068 14.280850797292437
Sn 6.183065742013924 12.70886397022533 12.30791523045861
Sn 12.35592391140641 16.62616577261505 15.50440035122999
Sn 12.664120199183097 14.529296506234571 12.163047797012316
Sn 14.351796012617744 13.082704701909929 7.383170578819438
Sn 8.999319508250633 13.096980032373335 11.17632491820335
Sn 15.588187132434951 14.563846281639108 11.054088598523991
Sn 14.492020332488341 16.775957829743298 13.187311402669962
Sn 11.217144669461076 13.601590694555656 7.138083195198036
Sn 13.250679483888764 15.438873823545336 9.070468555168931
Sn 10.251805332148221 15.927382531664968 13.341517204035002
Sn 7.321753095577129 15.561799035097723 12.35953251396977
Sn 10.11186438439474 15.45001920640428 9.70610978852985
Sn 12.126908987679029 17.57203099322786 11.095998599258566
Sn 9.135370254975985 17.853525031594877 11.26542614521314
