45
Energy = -158.5092598 eV
Sn 14.582668330098384 10.392072945450062 6.353795569138259
Sn 13.967383733930166 13.389592152465745 6.307098557805349
Sn 11.831593212986794 9.077188169963549 5.806616501331554
Sn 10.946850546511593 13.605599922544043 6.137114492825597
Sn 9.370858234233046 10.898407828160122 6.608293518164401
Sn 13.430289621461268 7.629555863275173 8.056576943824025
Sn 8.564486440101275 13.412050681207958 8.649159857519116
Sn 16.10166092222361 8.864428744617856 8.80340767689149
Sn 15.547802755512407 12.110614794815763 8.923647971972434
Sn 14.692693251804497 15.059981972841843 8.826829152849704
Sn 10.321213086047829 8.35659680306986 8.884924079349878
Sn 11.655751070554272 15.009175184770813 8.71122359671253
Sn 12.138826725296036 11.38055529007485 7.8551486580737455
Sn 9.86839830966149 11.136253588745594 10.033815182211391
Sn 7.428878676251009 9.260908062986777 9.018610780715697
Sn 9.310148104834273 16.078560888387578 10.30936493430667
Sn 15.368982032672408 7.203668100076124 11.92157896316738
Sn 8.360052882498497 6.555149914847358 10.796463070653004
Sn 12.716110812725992 6.358342286391805 10.698012173295155
Sn 6.201606721977972 11.751176571111802 10.151586612291828
Sn 7.5202594543521695 13.935346936599995 11.811993762786393
Sn 12.965061405211916 12.90950373975013 10.473517975974673
Sn 13.566019591796003 9.496848574703186 10.597725311570974
Sn 16.414296656276104 10.113982447626181 11.658617725778267
Sn 10.860123167233972 14.184767646225286 12.5850866925813
Sn 10.53210029577799 8.24653595559668 12.157445568857819
Sn 10.886338326151346 5.117452957283594 12.69219626634958
Sn 8.383498212460461 16.489953607309104 13.380846126421783
Sn 13.870007788679922 15.747446763297134 12.00259779274088
Sn 6.600123737058944 8.876846374162069 12.071303171241613
Sn 12.115555065653728 10.842279315545946 13.084164707421857
Sn 8.852571526766711 11.235178556481626 12.897155301960636
Sn 8.063561161888886 13.619827760841826 14.981558102917308
Sn 14.750419638590468 12.843131265961965 12.932871067012321
Sn 12.825929200842634 7.015680075269493 14.079685885560444
Sn 8.391380013174569 6.772194086500113 13.917268560838172
Sn 14.680116405392388 9.429759001192366 14.167781680339786
Sn 11.229969423866144 17.25705358010386 12.56780099514507
Sn 5.696531362234204 11.792606379155703 13.26863898033224
Sn 10.464488601072985 8.576812172005493 15.32878106927569
Sn 10.412290403239325 15.606543511509056 15.410826720613997
Sn 13.29215868872398 15.028076866025977 14.862114655389608
Sn 7.381130293737735 9.58554155099953 14.954865430326098
Sn 10.394887650665755 11.625373850144877 15.657591886307719
Sn 13.476440340061671 12.152891142195994 15.635810151450574
