49
Energy = -173.54584288 eV
Sn 10.722968010528318 12.845797616687719 5.450352877425158
Sn 13.400692135903704 10.963092053043718 5.661716598471843
Sn 10.768051508107868 10.004443457550554 4.187554519567476
Sn 12.356295786146447 7.964125348547049 5.90484478607325
Sn 13.2302974994531 13.82796836344058 7.001111260497241
Sn 8.51855311801929 13.904997575859236 7.446228056321594
Sn 8.030734215469751 11.14037035070288 5.653058579239708
Sn 10.783761935624852 10.324679744733583 7.540338639947854
Sn 9.057276132044498 8.126094485665075 6.112286253764758
Sn 15.380095443480961 11.871055678500385 8.303973713647686
Sn 11.049010038708122 13.593479453661065 9.146288248247153
Sn 14.247302770264504 8.94408857441594 8.1237155766417
Sn 11.400380367240171 6.906985763094002 8.596842418225695
Sn 14.272602031030468 14.224367827833149 10.061428961652071
Sn 6.039907901929059 12.3507703060141 8.046720861547039
Sn 8.627460402229028 14.995363802480508 10.897319169214654
Sn 8.686922867663915 11.713832271854631 9.899719844710068
Sn 15.940227921130264 10.297088712081015 11.173922588113465
Sn 7.310221269858098 9.544668451096243 8.309545588971039
Sn 13.320964983184284 7.530509984244465 10.825884570004176
Sn 10.359257445934459 8.945854144083983 10.678015972086142
Sn 12.831741764623217 11.055482988451041 10.124520964618316
Sn 11.791935659279751 15.62555074192274 11.46231751284294
Sn 8.409400323546443 6.889064575302499 9.138960796897289
Sn 15.034517434335429 15.467220522187066 12.784061793411333
Sn 10.714207075494006 12.953288491341107 12.725306487529465
Sn 8.00886826640495 7.320113262316194 12.22195231035662
Sn 10.94580950030108 6.60104900498771 12.642715785028576
Sn 11.790016928676751 9.988799727128113 13.688537891570462
Sn 6.136473142095039 9.882118276117332 11.555021920400986
Sn 9.39565473869142 15.95244922731487 13.660712450447743
Sn 8.60995970643748 10.45331389885338 13.242852679424315
Sn 14.098903428345546 12.322952937367594 12.697810179686634
Sn 14.605364907781025 8.587384760185326 13.53254901146862
Sn 17.030590816160334 13.26491617519699 11.156874744366275
Sn 6.269657039591006 13.10343978068898 10.987363700145437
Sn 12.309154839631814 15.061086424865604 14.52191357099431
Sn 17.622305396840634 14.380060317135205 13.996628932195964
Sn 12.262545311322917 7.355125168866743 15.265943996278692
Sn 11.208142278432955 12.599086547425749 15.909024644711359
Sn 9.006221502804058 7.91201369320749 15.199825451984768
Sn 5.9396406485729285 8.976587898835659 14.544636264666481
Sn 5.849346541394031 11.939335502159437 13.94215122697721
Sn 8.435572517739065 13.346355464569822 14.878802532134149
Sn 14.081258222834618 10.704535213854907 15.68970170453449
Sn 7.875861216979254 10.592053965464151 16.33080002014772
Sn 15.087707732116318 13.580225688203301 15.415557155568399
Sn 16.93457522575493 11.394402435911195 13.84499324699641
Sn 11.249967105474209 9.71073640016355 16.855976995857134
