42
Energy = -148.25917859 eV
Sn 9.650341056112332 9.908097989971502 4.771605765233713
Sn 6.512975796710204 10.119426882142873 5.419680864464046
Sn 7.806456866362322 7.335276302104617 4.7879491779146734
Sn 8.558555803830489 12.237152915019509 6.417899108471481
Sn 10.666442073386662 7.18154461684359 5.864773022955154
Sn 15.546356477196374 11.383539398032287 6.705975452451105
Sn 8.797156191524088 9.016414374984839 7.578767858404666
Sn 5.8376661629895805 7.739100007543937 7.306665778368928
Sn 6.6467213940402585 11.407358188495227 8.663952942538833
Sn 8.319695501149512 5.845681585311854 7.643766730418235
Sn 13.310012946225068 13.5643703935608 6.9855944668657655
Sn 16.62568874521793 10.683896890256587 9.73826583281842
Sn 14.636317785876738 8.773537964272194 8.2018697435114
Sn 10.639599550743757 12.579731401835145 8.650053085584117
Sn 12.347853917253424 10.475089860160905 6.607597668346148
Sn 8.917232458678491 15.222445255455202 9.64584398124999
Sn 11.421189532469315 6.223190557151886 8.773979887138546
Sn 7.9788076466089075 9.428941986631445 10.619606522496364
Sn 13.687238795780662 11.674505525643482 9.207352541903926
Sn 4.830931624494196 9.34090010372538 9.819535172985024
Sn 15.80871221140113 13.749241851027692 8.96952592947185
Sn 11.60024318049922 9.229734460389983 9.437771703428329
Sn 9.546005980558562 5.100128946805806 11.137481405607936
Sn 10.571582836250215 14.7253828086855 12.203212505569482
Sn 6.006629266964675 14.16025909092838 10.146186587951654
Sn 12.613191699305402 5.9922496336223805 11.684662628657824
Sn 6.705873946765845 6.752754143851453 10.29723991362327
Sn 8.448438511513805 12.663032123726781 11.241880925826646
Sn 7.566128274103569 15.655259893435622 12.422850074784925
Sn 14.129585500708913 9.24867723280428 11.332352143095154
Sn 11.710899923058989 11.722183661458416 11.666038941652323
Sn 14.952137955435015 12.347372701043566 11.771577586210332
Sn 5.679164016350543 8.704102577620072 12.767186157542517
Sn 10.25917661845988 7.992057570017748 12.197057357626237
Sn 7.792047692857861 6.383378023141185 13.400491262732757
Sn 10.905633914841218 5.306722541300509 14.103256851594743
Sn 8.728591993389587 13.42203949726783 14.288202459415904
Sn 5.945502408564887 13.001812073362869 13.017720013803647
Sn 8.020095685777875 10.284262396350139 13.579969709887996
Sn 12.615003438320452 7.960688524882359 14.111886524905769
Sn 10.95119331911649 10.59497154430955 14.420121664511475
Sn 9.703352833552634 7.8599180392716965 15.389023582426335
