47
Energy = -166.54912443 eV
Sn 14.80901604088224 10.899105437868158 7.882094072752743
Sn 10.59345285010658 7.778102935506203 6.57941989568342
Sn 8.504003265258945 10.11824906968864 6.539769614391539
Sn 11.393497413894405 4.90893451374218 7.7973016818613585
Sn 5.558935899281153 12.281605546578827 8.041075187469463
Sn 13.77663432214929 8.281931847640365 6.435304590581254
Sn 10.237054757029469 13.779233847905548 9.456941579775956
Sn 10.758787161433712 13.081582392346517 6.39407304922749
Sn 7.459222724603013 7.082304241374263 6.757543937504999
Sn 15.923369259480575 9.944124833228532 10.79136123076755
Sn 7.9798048808931386 14.23262984697642 7.285632640855013
Sn 11.67418942078567 10.544599306535856 7.994800434353657
Sn 8.50537902415581 16.278680334924356 9.688880094831793
Sn 16.295951277206353 8.253902468356937 8.317851482161876
Sn 9.832290297112252 7.031652745811806 9.39543127235127
Sn 14.394581010821366 5.745320827150709 8.286173613909266
Sn 5.778903205300549 9.267352715529128 7.816958686581155
Sn 8.274831308062335 11.376529742497306 9.246870057229529
Sn 4.257947924855507 8.943167386399226 10.528645873127786
Sn 9.538585061122003 4.016586949106157 10.096915823569704
Sn 10.459860321231947 16.090118282071728 7.144899268522941
Sn 5.588805148673987 11.892231965083058 11.025203713853395
Sn 13.256171941227908 8.412693357229259 9.592698402934483
Sn 7.432035649613265 8.764642686249971 10.591953023644688
Sn 12.58716690577755 4.717364547011803 10.756656102185012
Sn 12.981329366271366 14.413442165994534 8.18871242464005
Sn 7.126935645237663 5.747710471390572 9.490991305123677
Sn 10.703676492495779 8.15559083421363 12.015812638489262
Sn 13.713609117785394 12.327016628148884 10.511383164093978
Sn 11.046082360304268 10.95952892306746 11.055113085642894
Sn 15.27971899868006 6.715177495293856 11.163031662926384
Sn 11.568232724675054 16.48239165977068 10.049446561222254
Sn 8.388491637676292 11.352020927855145 12.715818011210974
Sn 7.958115781115261 14.435182032850493 12.300679431561335
Sn 5.797902249797242 6.7677158506745805 12.159891823145776
Sn 10.064517075920943 5.298259358069464 12.879685065858993
Sn 5.506504468510328 9.810635973101554 13.186681644282032
Sn 10.92047775872524 13.737326346665276 12.696499218111828
Sn 13.510574959922739 9.678900934053122 12.730463956093999
Sn 8.251111616952516 8.14702852622869 13.653427452290716
Sn 12.8851437297062 6.491592078862868 13.328076007244357
Sn 13.87909943146465 13.414476077089356 13.527112648398582
Sn 12.60397868715577 16.2167629253766 13.131352270963964
Sn 11.602634185500667 11.580369600041555 14.778826344229312
Sn 9.716345567816342 16.157190233591127 14.316072150620787
Sn 9.078606051472361 13.284539952345915 15.320984239838541
Sn 11.960881968226204 14.518940124872286 15.769930510254563
