46
Energy = -162.26641452 eV
Sn 10.747299194169182 13.50144493833241 4.166420780271107
Sn 8.85393821828323 7.985163068623178 5.525477571161118
Sn 7.76322813911348 13.440486510829624 4.799523647724743
Sn 12.355782999343369 10.98161864385405 4.29251435122397
Sn 6.821166738280746 10.573210511965264 5.5239580240168085
Sn 12.518361635957055 13.200942924165899 6.683219532465403
Sn 9.815210999568162 11.04965635490718 5.828793733399737
Sn 9.471650707499995 14.730807322177315 7.063613220807199
Sn 11.725113267517486 6.552323051341445 6.230706856481805
Sn 14.686387932702647 7.412116525876632 6.2388507427836055
Sn 5.831210153185591 8.341913284365264 7.460422942667724
Sn 13.925597181829401 5.47658771548775 8.410782781256726
Sn 8.311182308737973 5.900195888957213 7.630960287066726
Sn 6.654095175033201 13.33096199574482 7.759490906191456
Sn 10.977296031500064 5.7364253302576405 9.139332629304867
Sn 12.602647184842237 9.492380275595616 6.928794957516716
Sn 4.371611737083242 11.374768356710065 7.159929652428892
Sn 7.532926329639564 10.47485302576171 8.729655218091423
Sn 12.136469110241261 14.553635294359394 9.946150637679398
Sn 10.310844840871198 12.072646706064537 8.73424532814925
Sn 10.072244743233687 8.480391513884399 8.295681728509901
Sn 4.587536526299391 10.208208705754327 9.875622562864637
Sn 13.35586502373583 11.65035025986779 9.27135804711802
Sn 6.014131424798985 5.29639601453512 9.4708277732378
Sn 14.684184508549718 8.575471855418614 9.05651913077401
Sn 6.563609131892319 9.005036428584381 13.571382852747922
Sn 6.1539880484426455 7.87527678798144 10.854943081383109
Sn 11.590651443342088 9.519763675914092 10.828836086430252
Sn 11.112956727761166 12.526136753682826 11.989225717219826
Sn 8.747772448567963 10.56989929941097 11.927341447360305
Sn 13.62332195850408 14.221037507941258 12.702008883782277
Sn 6.445401306695084 5.864881186175514 13.766494453697144
Sn 9.154290236920922 7.435665315454442 12.443844929885715
Sn 8.860526812084931 14.402931749103283 10.047191995441018
Sn 13.416061996862318 11.049977762415464 13.232175311856965
Sn 8.21228223912674 4.815309103842806 11.440912253769312
Sn 10.656951648197866 15.328239068928815 12.99059542003162
Sn 6.537186272640199 12.417701633024551 10.90805743257505
Sn 13.187689529477172 6.896301779145163 11.101258443969591
Sn 11.189464701628012 4.497044039398306 12.068432103304621
Sn 9.188955500905683 4.693109580467049 14.588411969173965
Sn 10.661917946331176 10.254276032143707 14.396862704304935
Sn 8.532645035406615 7.53985931783187 15.523752287404479
Sn 11.903678413926583 13.103783063764022 15.07703339807154
Sn 8.935114424464864 12.958314402164637 14.151636739851691
Sn 11.373916188367915 6.806863561350269 14.34111356810887
