40
Energy = -141.52327908 eV
Sn 15.609849833456236 9.113505454914504 7.420143929253466
Sn 17.29925919589643 8.934196321468546 10.019377430990192
Sn 12.57349617015849 9.574800535977982 6.639800910562173
Sn 12.115306980485155 12.149988585681967 5.083784073673098
Sn 14.710071803142801 11.977457057366847 6.766431281834627
Sn 15.315592098438247 11.340842950898884 9.826677308926563
Sn 14.271388163376725 8.0217210671449 9.849002301684148
Sn 10.463095225674936 9.6254956958835 8.999144085432413
Sn 16.260817041703877 10.148674402264264 12.62340846020462
Sn 9.521675185640547 11.602955426023746 6.506842646789897
Sn 12.069473062058231 12.362119858650082 8.29168401967133
Sn 15.936450749982846 7.130897095404209 12.170150458456767
Sn 12.607644533717062 10.413272971566483 10.850245338481955
Sn 11.062303145911299 6.973282505149791 13.585760626702424
Sn 13.977587423028302 15.205405281312308 12.114092299744168
Sn 9.10482493662256 7.27853132726209 11.139668209105833
Sn 7.900908728601027 11.327552196607892 9.315766011235581
Sn 10.504154648161105 14.572463043142879 6.466140425318626
Sn 15.559594029180971 12.968170737963991 13.483068506610026
Sn 13.467174592212666 8.742750826735213 13.118329203766782
Sn 9.60843666277798 9.744564112558155 12.801260194675256
Sn 6.590411354325651 8.797838663828362 12.137580999803165
Sn 11.236522471168316 15.017576110962109 9.542537336502182
Sn 5.25474631204352 11.342114259523957 10.660713164283774
Sn 12.484379126771502 12.700954398342112 12.675638206973101
Sn 14.71448033759237 15.514541675959505 15.184012967457623
Sn 9.62666031857336 12.956550933182324 11.219711906543527
Sn 8.258454391023983 14.225144669928582 8.356952971973287
Sn 8.083322489204082 7.097485493266757 14.188288417260287
Sn 11.786415739661441 15.343202565265523 14.25303794967027
Sn 10.134252694806168 9.023417261070396 15.7174181034179
Sn 13.436678995070661 11.069318332864533 15.103046331633182
Sn 8.591573548477985 15.913339039349072 11.13869457879209
Sn 15.438923375228578 12.776966373596157 16.49725953756942
Sn 6.993822138915167 12.073688660525738 12.920232713652153
Sn 10.662356602679072 12.409705933281106 15.12860996000107
Sn 12.635915966935743 13.893815407350303 16.860461389620006
Sn 6.191264516856935 14.249744886410134 10.47926023853971
Sn 8.662021867061595 14.458007461632462 13.795321664643815
Sn 7.233312265488339 9.88130172555387 15.030094808394605
