44
Energy = -155.22543964 eV
Sn 16.16377947334052 9.887875208780216 10.093197668394279
Sn 12.822547353170188 6.801789103827107 8.08530999638521
Sn 14.475223212880755 7.275646620083946 10.568028312084554
Sn 14.249620647113575 9.397230843831071 7.788973648312803
Sn 17.716737056344954 10.955892129270763 12.42926840540182
Sn 9.782438237489826 6.59070915185838 8.573508930177239
Sn 14.969874851796126 9.810274402648806 13.190556214420562
Sn 11.554805661090452 8.314632037151924 10.880910978069553
Sn 15.892512164278928 12.930840357224744 10.08645150547819
Sn 13.365105194347938 7.293489667599005 13.431925367535694
Sn 11.00319493521938 9.200148392571545 7.246130810724454
Sn 13.36935282325607 11.010806251481135 10.886753848336904
Sn 15.972420963213532 12.316229638970286 14.839475676101316
Sn 12.484423016098988 11.958680403201326 8.18244688406137
Sn 17.2334844202596 14.011053846760795 12.510418824005704
Sn 8.827990803992511 7.004943048900781 11.498153617192115
Sn 13.474867813947082 10.526378518065643 16.1506900105711
Sn 7.830068219545812 8.933932161918287 8.387419526740814
Sn 10.444265983220363 7.6106827583933025 14.07149550302861
Sn 14.049644253430442 13.437615245263993 12.639240032498147
Sn 10.557851841638058 9.91136786699402 16.65642037851233
Sn 9.976357854699938 10.773922197853082 9.701275135605828
Sn 7.624067134409475 11.773930166333718 7.435510034371315
Sn 9.738633595289752 13.739189444671053 8.24376171731718
Sn 13.48174530996054 14.985320777939702 9.37672527687847
Sn 15.076046366112697 15.377049346150008 15.031119436619576
Sn 14.499745145594519 13.284234295495517 17.420892907673885
Sn 5.490271314290962 11.047743977727794 9.602189608628757
Sn 14.7887542191826 16.341667454845037 11.895334355095217
Sn 8.341973592757604 9.88846319536762 14.271723757869651
Sn 7.45418775166552 9.647213167356252 11.348030819044286
Sn 11.5415183401836 12.65029868118148 17.682091223298084
Sn 11.41913862987121 13.953913959858326 14.299580123311644
Sn 11.120384008345138 14.209481337745268 11.00931267883198
Sn 7.219830947616968 13.38906192427125 10.214950515983528
Sn 11.56610761804385 10.548200131885446 13.664846011137213
Sn 11.15229883536499 16.54510705392016 8.121671718534653
Sn 9.160671139862623 12.174335537899415 12.303178931467423
Sn 12.437213502826841 15.509793734302848 16.70939349331182
Sn 11.875355297179002 17.331627430843383 10.961320902648142
Sn 12.695654438323839 17.250859241978166 14.079321889910513
Sn 9.131761141143071 12.495242480722743 15.72522239984404
Sn 8.752648836534803 16.135137381459675 10.200086316132749
Sn 9.886643396418892 16.25179754665999 13.061436670921866
