49
Energy = -173.37043014 eV
Sn 11.719496690729294 12.70320051430309 5.823548733118179
Sn 7.228837064796748 10.3350847195905 3.8913172839004075
Sn 11.168456078376174 8.297015340467482 5.150630238573041
Sn 8.030903703316675 7.676381595352755 5.302960066764403
Sn 10.077686858124009 5.407865595212384 5.407392983414707
Sn 8.762717897141105 12.639811064862466 4.998164500500126
Sn 12.345844528201138 10.906268255880768 8.232784868404535
Sn 6.12439973512728 11.092339509931502 6.534972556895924
Sn 13.128972701682274 5.736149102586764 6.202531221398695
Sn 13.058644630131338 15.441570796636618 6.275736275960898
Sn 9.202404318536198 10.202647352314829 6.671689987974635
Sn 6.973622092333176 9.123359187604198 8.709560230975871
Sn 11.824911944471307 7.90090887876781 8.12490095071304
Sn 8.998127317362597 6.750841714888907 8.101171130388614
Sn 6.9132000304758865 13.974182437069107 6.910609580724426
Sn 14.70792226573566 10.814451186336433 10.331444776705885
Sn 11.400563442599301 4.2378690837478095 8.120467201171529
Sn 7.993261079389093 15.920962050400057 9.036690107564523
Sn 8.24887277716068 12.796994391655318 9.35580422066503
Sn 14.44920897525638 13.353963826029837 7.91828880834522
Sn 13.784365411224055 6.058742439128239 9.223122858417895
Sn 13.10858964582491 15.787762182866174 9.345155694450035
Sn 10.599680723523456 14.67668774002384 7.9195084531278255
Sn 9.64053364360646 10.211496007098546 9.898053820035923
Sn 11.871240695191336 13.062663600148491 10.22224285072352
Sn 12.059562363254692 4.408395215470003 11.183871124819005
Sn 14.927354673888628 13.792022416936064 11.048403290000511
Sn 5.972339067565553 11.19422209275245 10.905436067774374
Sn 10.583484013027311 7.216269980994028 11.08710826750518
Sn 9.431464767308286 14.87646183241282 11.64407961937189
Sn 6.204638141016755 14.287209860851242 11.307361620944116
Sn 5.95848769426533 8.577469777950236 13.26252069037919
Sn 9.070684959323145 4.648044733006835 10.364236620371331
Sn 8.548099411152062 11.966738748097379 12.509862895445586
Sn 15.328915287204936 8.712667149564425 12.436015419811946
Sn 7.72014918754431 6.068679235388489 12.873556206937709
Sn 8.962911067242183 8.888229320164253 13.413864619476529
Sn 12.398762378290872 9.638106546169038 11.983560414110062
Sn 12.526012310125724 13.850009394519576 13.015771491314133
Sn 14.559086745663382 11.430379027350497 13.659944367929164
Sn 5.623364017107876 12.16911615869374 13.779693167417587
Sn 12.93574912671917 6.744134248626814 13.1058958640762
Sn 10.217364092235364 6.401462432839273 14.72000002400814
Sn 7.626260271993601 14.471062654995578 14.030188860149408
Sn 7.327619555415817 7.1166358407858885 15.72008320378368
Sn 11.283136297264246 11.271065478998649 14.199885732807322
Sn 13.231245476432624 9.064579987938467 15.111192724690753
Sn 7.192472535064635 10.166474428675505 15.679335937413311
Sn 10.0253152226013 9.008287775938497 16.326325280574242
