40
Energy = -141.08430242 eV
Sn 10.091523449742596 5.487748160168178 6.920178967126403
Sn 10.210431282008374 8.331681897944156 5.793935385481035
Sn 12.236209630888249 7.168510864343882 8.09462514081457
Sn 8.764109342488547 10.324415740664527 7.757283027175187
Sn 12.070440156650983 10.165839150909473 7.397403897174541
Sn 10.879502478840347 13.014175353207158 7.5379045877506385
Sn 7.908735235131476 7.319305566344677 7.778915171160808
Sn 13.587573254377903 14.209133490883445 8.706199678507433
Sn 14.747760675784942 8.638238759555602 7.326367906503372
Sn 15.531517552368497 11.258998239119439 8.863419587748178
Sn 8.892707688207581 14.722304426832721 9.260423591056078
Sn 11.401740003279961 16.449828121444718 9.157114813749931
Sn 10.026144699850882 6.278950721912808 10.016470378670247
Sn 5.974973555149099 10.83362883929299 9.273653268411296
Sn 10.920673793924108 9.48781347032816 10.039254582927272
Sn 6.077470218430427 13.865729773945036 8.946926036201836
Sn 15.549263905881098 8.49212223792606 10.337688285149062
Sn 13.37344545492166 15.524281194547537 11.43665368689867
Sn 13.678971607782122 10.944006311785545 11.199718084909794
Sn 11.337337852591313 13.163758145543154 10.593547391190343
Sn 15.861660265081783 13.577990839209983 11.052793439508775
Sn 8.074756503074482 8.664649089577189 10.537861437708807
Sn 8.080667382289331 12.1807124453585 11.029282239860462
Sn 5.002304890156282 12.715783220131614 11.578270054126126
Sn 10.214351188096352 15.751717828110182 11.927387660156647
Sn 12.622953019286017 7.453472356647217 11.524158258466738
Sn 6.908108372882031 15.158954023329049 11.680316941047256
Sn 17.189441057171678 10.760594347517774 11.45126755801012
Sn 11.091020513245796 10.165169455677566 13.343884115620673
Sn 12.016077589814934 13.27492631457232 13.609551144296004
Sn 9.693783637260523 7.316365617463717 13.42795570185193
Sn 15.094618227061256 9.181631360895835 13.337585224887222
Sn 7.097606448170241 12.81556055342209 13.899994648343716
Sn 8.160082560678957 9.834778972742837 14.155887457754861
Sn 15.016997365828505 12.267403097429316 13.654458911837795
Sn 9.527198357496863 14.567533843486123 14.73861759613535
Sn 12.628174615243761 7.776100830686546 14.747292676725866
Sn 9.897674826956148 11.742393735800992 15.953118734403503
Sn 10.144781502641646 8.793561081569063 16.326475378249164
Sn 12.767472885872373 10.67049356628126 15.936420399011956
