43
Energy = -151.905088 eV
Sn 11.035018997300716 9.57133320150065 5.512508180280335
Sn 11.102578538282394 7.088615150165314 7.4592286097469085
Sn 8.09336065135502 9.494002696061996 6.765965830861315
Sn 10.476670887781346 12.432186400313173 6.576795791548483
Sn 7.421135093750899 12.259776976913205 7.827559646006165
Sn 13.529491783791856 11.529430884754817 6.334242389911262
Sn 13.825351114402006 8.372748597260085 6.12928533004451
Sn 13.993007202704739 6.999817381834063 8.910662145917536
Sn 8.000403271516163 7.319245259524124 8.922143551129112
Sn 9.659347875282467 14.382652410714986 8.86877234382875
Sn 12.04190009269168 9.734490487929353 8.624198493382671
Sn 5.702756534766153 9.305457016003169 8.838085560709668
Sn 12.634462370723497 14.468864191254085 7.467175951147195
Sn 8.849745706309154 10.221849225661709 9.721336426599631
Sn 11.540236733329444 5.449184365535822 10.18101189056265
Sn 11.932717496654023 12.564473364947778 9.857218418620638
Sn 15.188566244966603 9.9678770038848 8.47808379622279
Sn 6.273054370230643 11.78037919667998 10.67241590596297
Sn 14.853064765008323 13.134062730900988 9.178637891036791
Sn 14.67872321700648 15.326625423783014 11.395179032801684
Sn 11.926174942011814 16.10804444381829 10.32569632341523
Sn 14.711725074818563 9.207964163488066 11.507630326829094
Sn 11.759571886373836 13.924917921948877 12.614998175619867
Sn 8.645950477134162 13.68833179922565 11.703126367559285
Sn 10.03073221287562 11.142717935898995 12.631981311314652
Sn 11.558466100581983 8.34345764927909 11.65060031721909
Sn 9.120649049759017 6.394391425142973 11.723766102669336
Sn 13.89790246636264 6.23665836249159 11.91939001813725
Sn 12.890750392859934 16.811673627474054 13.404958508200407
Sn 12.944903127764306 10.949923301768944 13.580529124698698
Sn 9.866839869054532 16.400193967066766 12.776008049667128
Sn 6.92095418904232 12.095063147001067 13.789007190777106
Sn 15.273825521702564 12.232923207021408 12.067275631800813
Sn 8.359772704973757 9.505366676641213 14.507431995531798
Sn 6.885214185617229 8.72781835399351 11.576488035547316
Sn 14.268966962373572 14.177632224991603 14.43758345238274
Sn 13.233154983463935 8.06885448800986 14.354248554249196
Sn 8.215724110617739 14.663973003109431 14.808805514588096
Sn 11.335113018423135 14.920624172223253 15.631105429717772
Sn 9.49327343147132 12.201031970176327 15.999815222831122
Sn 10.897567339817225 9.545286413712004 16.49360311584868
Sn 10.346194712749165 7.220491453255704 14.458367372688437
Sn 12.635073032177923 12.079681066517294 16.367169412265458
