42
Energy = -147.9325384 eV
Sn 12.446695322126676 14.63845413782611 6.576600012276426
Sn 16.43065429225681 13.64525432598854 8.066484415783238
Sn 15.891236851733442 7.530415317103073 9.929813972155731
Sn 18.3120196853424 12.101044497443167 9.994372444962755
Sn 10.006450912867727 13.047378208546885 7.387676415588665
Sn 16.195180650720957 10.354849060002076 8.447448109397572
Sn 13.718496754200352 12.103013979043023 7.850551471655886
Sn 11.238232492203116 10.462384528897093 8.789006127432103
Sn 7.64888184197299 14.989235151207529 8.239813515243767
Sn 10.65011538091817 15.87372778957458 8.776791862550851
Sn 13.857207102240078 14.951378372463841 9.241438914058865
Sn 14.182673413440737 7.479616013449314 12.472984398967453
Sn 16.828476548236385 14.680775314981291 11.00148203506896
Sn 8.16631495135583 12.087145047924048 9.656511745598229
Sn 16.94899853285038 9.83854068952772 11.559386743982651
Sn 12.980816423466154 7.990017856798225 9.597213527832468
Sn 17.491624936189268 12.479590464703783 13.12891085687605
Sn 14.8462446144982 12.208844290145533 10.868456503615528
Sn 11.167578034389926 12.85882385276804 10.542962744457668
Sn 10.964952614962717 6.671180694674506 11.345247470604638
Sn 5.748172871565068 13.649780597982847 10.461250018453718
Sn 15.074855782649589 10.20006652763904 13.940878154749564
Sn 8.636924564705396 14.899063406660174 11.144452948783362
Sn 11.880904148011183 15.469295814595474 11.65639893439627
Sn 9.339080508423537 11.915113909888403 12.926089903620868
Sn 9.033874851329925 9.099726953973756 10.83801861396908
Sn 11.941596213992295 9.665322540447828 12.068043865244356
Sn 15.521524209616953 12.781273569127613 15.58051692491928
Sn 11.636853307818368 6.990847346710236 14.264934446559588
Sn 6.478285245234693 10.849316935884312 12.029520123596672
Sn 12.661595829068057 12.467985847777639 13.855308537510258
Sn 14.71916684272215 14.67139268404852 13.231733888056624
Sn 10.048825766155248 14.44973664464229 14.641373403891556
Sn 12.31371781408834 9.71073119613494 15.33216270443743
Sn 6.893452278168086 13.740311948454755 13.477820625033756
Sn 6.793486777306576 10.934214772160178 15.146755369508279
Sn 9.149400077561841 8.961717826053375 13.955465666052577
Sn 12.90434201781735 14.779115803262256 15.981735271952571
Sn 13.030629850413172 11.961060894590585 17.28508486445649
Sn 7.64526821101852 13.598759090421861 16.503574841693645
Sn 9.701017180713094 11.209278614971335 16.165737507439413
Sn 10.623182914031444 13.71231370010688 17.75471067377985
