43
Energy = -151.81021378 eV
Sn 9.077018593005699 7.710520618615708 3.305422955189561
Sn 10.577421584407059 5.294713045139602 4.479682808600103
Sn 11.794487597391324 8.1319047985015 4.795825849905363
Sn 7.514161771527603 5.861907737269038 5.269207870569349
Sn 9.324393283136944 10.158141333374992 5.282977906149378
Sn 6.5989259710377155 8.867850644507028 5.119574193277801
Sn 11.213436826126031 11.946202697298913 6.706689431385387
Sn 8.098901114539215 13.352355031158284 5.728645274813543
Sn 9.511381204817587 7.632073936593405 6.967675319389094
Sn 5.975040816493098 11.992301812908654 7.434793534073799
Sn 14.982560587221116 9.818850592651197 8.042264212318434
Sn 12.171921238119952 6.023634946071884 7.1002699110410274
Sn 9.45524968362632 4.625763905809983 7.399828397090164
Sn 12.038040219963591 9.077082632239557 8.360811827898308
Sn 10.063961733828336 14.85932200640751 7.652769294250308
Sn 6.907819008305214 8.829447666305171 8.130072620300885
Sn 8.851642532170631 12.152796878520306 8.489869246862696
Sn 6.995119712765721 5.960605468684689 9.245425666672055
Sn 6.961471117916065 15.020539560689091 8.095415567236184
Sn 4.915327592013879 10.109691975061146 10.08759891748391
Sn 13.58221261104659 12.003990285348 9.451990936787448
Sn 15.998532476685227 10.10583619693883 10.98919395243649
Sn 11.08407635763526 10.916668931604605 10.742712058649618
Sn 9.885697260088701 5.4327526834082835 10.61074113110249
Sn 5.82657743752419 13.08572704684293 10.38885298268656
Sn 4.889292424290069 6.609993599652793 11.590479815460407
Sn 7.296148293454497 4.658581704926001 12.317286217575829
Sn 8.869772742902024 14.527608182915147 10.541856332302478
Sn 12.04602870406247 14.357925931315533 10.716731996439519
Sn 7.791956848483621 7.6914717727088595 11.611213815231716
Sn 7.846713890585652 10.530970477704114 10.81824442521553
Sn 13.760821005664331 11.49303371008332 12.402153106753751
Sn 14.363903335314738 7.57518555245873 10.045191807178977
Sn 11.584930452155865 7.887664371187031 11.265266023698024
Sn 5.2047675457309515 9.35657944069694 13.11383446123991
Sn 10.308004636797927 12.764672349771539 12.987526626640298
Sn 9.441340574238534 6.380512545965128 13.847911837569027
Sn 14.28377191763808 8.415719816667815 12.940652920468771
Sn 7.349360968539755 12.19219076023457 13.183346229700737
Sn 6.267541263107882 6.716154216708252 14.438092999991213
Sn 8.173837681766251 9.2474199598518 14.25690430855752
Sn 12.889222876686373 14.038689764534999 13.605441288282492
Sn 11.506397161381184 9.864134064860405 13.71874457571849
