40
Energy = -141.66951001 eV
Sn 10.726752669679646 8.044572984335215 4.698120671885875
Sn 7.773905404033112 8.987982554457279 4.058029924266155
Sn 10.026143837334843 11.030615459254122 4.657673162718234
Sn 8.214858246253849 6.377262132148547 5.669210881666765
Sn 11.999816212449836 9.137521336956516 7.531177059251866
Sn 8.997095617704392 8.997360602630208 7.168211101700822
Sn 10.857988313951811 6.815430759399888 9.23399841830425
Sn 7.294564328726159 11.396074992243374 6.074217850024195
Sn 5.964778670307143 8.532125002464763 6.487269366236648
Sn 13.476298391119823 13.866044316409612 7.972854702864064
Sn 10.559541198175536 15.115148980523351 7.530607171745975
Sn 10.455412961782757 11.977346418659256 7.5442123061395385
Sn 7.7054043627449165 6.538995063456158 8.797871284278859
Sn 14.043286053354558 7.5621205221606616 9.824608338024444
Sn 11.669365035208548 9.419906176971212 11.04604688621927
Sn 12.548616615858702 16.60774538109712 9.331430935931813
Sn 6.749206031884605 9.445031429597949 9.459957702655071
Sn 13.957021192771794 10.747316120479892 9.528691659556781
Sn 8.063875705922026 13.622432834332198 8.82810142407015
Sn 11.5841248038244 13.505417795806077 10.289345537262154
Sn 9.680230866334426 15.965898186644846 10.443985377858176
Sn 9.233865610778926 10.946372107414113 10.215443091634699
Sn 13.405803798654274 9.00003782496154 13.58589227543936
Sn 14.933458487216216 6.6240044361981925 12.548865825531815
Sn 12.165389972506803 15.75553931097091 12.355033116287702
Sn 8.688750079460076 7.696683417713994 11.469790156348276
Sn 13.732475612772388 11.86493611336267 12.40662975351132
Sn 11.003574143164123 12.925528113418558 13.322786834142796
Sn 6.897309995986419 10.3938418307629 12.428806769706076
Sn 8.210105407224306 13.105028630050876 12.021327939003719
Sn 14.499191853479658 14.556838288070455 10.817981551633828
Sn 15.798567613972352 9.464254184759195 11.650790625357013
Sn 11.846659060474648 6.480789867058136 12.163251664818182
Sn 10.021252298427926 9.925872952750439 13.87623309034483
Sn 10.656109052509956 11.88450408307869 16.28482753870358
Sn 7.316408850922938 8.380134067327068 14.76592828976838
Sn 7.724153902810288 11.49786861908764 15.33094233862988
Sn 12.05238507969367 9.087578974147062 16.25720562578123
Sn 10.154042724639389 7.080418599172525 14.942552414062469
Sn 9.022921694064793 9.348131287848336 17.090801094815284
