41
Energy = -144.54355269 eV
Sn 9.143921612748215 12.753864209169341 3.6993484081551755
Sn 8.299335432709766 13.535089012159409 6.477766477577265
Sn 7.6280297496728275 10.621344091319878 5.171475266166189
Sn 14.756334487353513 8.354450061401561 6.457825177604873
Sn 11.436611320276057 13.426805992956387 5.740522770384254
Sn 10.993234823094522 10.534918947045096 4.636604635715416
Sn 9.268331320616527 8.291113826299512 6.169963066082556
Sn 11.924212832582509 8.948324156021204 7.4404587257538575
Sn 13.610918811147714 11.28020156172406 6.5272036239349385
Sn 13.32709392401014 6.482884829434122 8.605037294232623
Sn 6.050788853476004 11.796003395286228 7.443882028165289
Sn 8.27333204339005 13.863960917037852 10.585837293609933
Sn 11.404363192203046 15.762897667541461 10.168634544914067
Sn 13.765192779226398 14.175392938611076 11.342144341168343
Sn 10.17295801881667 6.329837434785226 9.994763462267143
Sn 8.844191696324899 10.561027514291988 8.170322733976322
Sn 14.31336579631509 7.031218790661579 11.649388418391867
Sn 10.51220534537556 13.040147437184697 8.621141077732467
Sn 15.213987135848702 8.895740765844614 9.345756276271516
Sn 7.788959692491209 7.632476019315394 8.812527479263434
Sn 6.347877825778662 10.065938202036067 9.930205883169387
Sn 9.588721087248919 11.000234459773711 11.347740561249463
Sn 13.029817759597725 11.567543914724167 9.494504046677845
Sn 7.724961964758523 6.5680644998856605 12.278558793555334
Sn 11.907649258869778 8.701425629136422 10.44218614222868
Sn 6.7703926121601805 11.746211514304004 12.459607818267884
Sn 11.576827021608105 5.647946619028285 12.606598258225873
Sn 11.004818963631262 13.552392340815741 12.2915323606752
Sn 9.320968451488945 16.21686646124031 12.435090569921138
Sn 12.347713825642616 16.467866319123516 13.111376894902879
Sn 9.938149914131428 8.410920653038387 12.918147886002517
Sn 8.893938644657961 11.915653929790274 14.60388368708664
Sn 13.95136703168488 10.080798823837723 12.1242977772769
Sn 7.067114094044215 9.023516902538152 14.046982014981738
Sn 13.237866643844624 13.698792156788349 14.40967284795763
Sn 11.726113713206406 10.852986776661174 14.12258880181795
Sn 9.364332417203649 5.747898753083653 14.705959377071737
Sn 12.252323766346453 7.829863644636491 14.770834643678286
Sn 10.41665593118616 14.813518242789764 14.975143375577904
Sn 9.408741548087933 9.238172190920508 16.01603153178559
Sn 10.656919804686284 6.796329545300923 17.109094774065813
