47
Energy = -166.50310322 eV
Sn 12.613297234255246 14.751125064828315 13.096134593737341
Sn 9.257459315351134 8.054735988141386 13.488745331275489
Sn 10.566697454366219 5.242766594227128 14.107963897393125
Sn 15.070093579496278 10.148527278264547 11.116762930314426
Sn 12.500356454499459 11.89906987558054 11.908048923181825
Sn 15.494341286390517 12.820392487486332 12.397511729029935
Sn 10.892057134351006 15.402912377792548 5.946071974381845
Sn 7.986514115022747 14.189854359457438 10.589656239805143
Sn 11.615765841011324 10.138626723684476 14.344381742404401
Sn 8.865183453117526 12.065186355630207 15.002408247059316
Sn 9.286070528227908 7.181967868385263 7.884985820369063
Sn 8.002661534340826 5.805099383507319 15.716053765639964
Sn 9.616133494060223 14.334946107813277 13.1336561128561
Sn 7.860925631864673 9.025632491490693 16.117314595166967
Sn 10.07743478950394 10.852506483713851 6.505723618229913
Sn 6.052403920168065 7.524746799493062 13.954118771424843
Sn 15.272885165844668 10.350455466196326 8.157540974292036
Sn 12.219064364332247 11.77656361995231 8.835684581040136
Sn 8.535507008582737 13.467968438188507 5.8224526450882985
Sn 13.658313668463151 12.51707476285934 14.90725125205897
Sn 7.672293630619617 5.038426936507012 12.743225047236603
Sn 15.1340514852965 13.246600266356658 9.172985460313466
Sn 11.470377430976031 8.003311811263748 5.688090764282738
Sn 10.22534463480549 14.016757039809857 8.530755737369386
Sn 11.041352830815189 9.777057026581062 3.2040685684710977
Sn 6.238835865767113 7.221462738841693 8.013152560411557
Sn 6.5824292809323435 13.746709915175872 13.496189853120557
Sn 12.716708582213492 8.79120601404723 8.509664741435751
Sn 13.147191877099788 10.73989781442131 5.4996320996574015
Sn 6.511150875962328 10.681282467911018 13.495034051009045
Sn 12.626504517176635 8.387828545176301 11.754343392617338
Sn 14.792065373834436 9.819890737731667 14.120162174609165
Sn 10.20211273958191 6.174733465340292 10.916486352108027
Sn 10.539603361158399 7.582494244715588 16.36540720307186
Sn 13.222133116138883 13.586966593608038 6.666218434048732
Sn 12.741659977266202 14.800546174644426 10.122005669918908
Sn 13.011472901893253 7.247233137610782 14.49652363668565
Sn 9.057716935020338 11.555405516223045 11.91544768634623
Sn 7.171586648115206 7.772926360574862 10.948939494632869
Sn 6.672577342563094 10.970246915263795 5.743879843911488
Sn 9.993366513366503 9.2176119956547 10.11621451385931
Sn 11.185756433139714 12.892052216358737 4.073381415194356
Sn 7.661464992597566 5.017289691640849 9.610011651022212
Sn 8.533382982840019 8.617075261656183 4.8716348027596394
Sn 6.167660335120378 11.855974242705056 10.769415228293447
Sn 7.463355411566144 9.947222814909882 8.50650923095219
Sn 8.50218218415812 11.469135761852097 3.3456568751861315
