48
Energy = -170.40336329 eV
Sn 6.076127351454815 9.536374800049657 5.618250380774917
Sn 8.263341112919678 11.967444105985374 5.84318946260361
Sn 5.123564988500359 12.648902589532216 5.592307092627545
Sn 6.282018762106836 6.363673442941861 5.910154918040714
Sn 13.16338569980709 9.770942910451586 7.105678103755841
Sn 9.314879737797632 6.29344919954571 5.570733163012193
Sn 10.149566418806627 14.159221714578994 7.155289388985125
Sn 10.416963564792713 9.155357804844146 5.536597168239679
Sn 14.857287097227303 7.484063761093119 8.167635874690648
Sn 3.6799332003486924 10.628027758058934 7.559719690795285
Sn 12.304894244480137 6.702271620623612 6.455337902662516
Sn 6.829152097339462 14.627377112496742 7.361645383908182
Sn 14.733305302897346 12.458264396447701 7.539066765722646
Sn 6.629119383615889 11.615407037632052 8.414730183482801
Sn 8.202362909098348 8.564637689413612 7.6498220510106725
Sn 10.55362530380303 11.241084395356044 8.010891023473086
Sn 13.286092049974972 15.056147706339418 7.838115101929124
Sn 10.585762567342316 4.5263450708329325 7.816700409668767
Sn 7.758117688163069 5.52641163558009 8.380824126285082
Sn 3.928002028937475 13.699588903075393 8.195446485380028
Sn 5.286767122110734 8.02403703189003 8.396233139598058
Sn 9.82549782362883 7.41581109041142 10.110256472758511
Sn 12.681434906587072 5.879822141496585 9.586172775836205
Sn 12.65221407374807 8.986633217343853 9.991908924044399
Sn 15.722803760479088 14.568135928241913 9.917108654038291
Sn 9.178996034528124 10.508559163264586 10.575646494504324
Sn 12.517374293629448 12.780244206218253 9.79999627612649
Sn 4.479137430497281 11.367680139632197 10.51461213140682
Sn 15.295440965378514 11.558481829689446 10.335084217642093
Sn 6.620801470164024 9.110149366439039 11.088209152633125
Sn 9.724381764333996 4.915299240118046 11.913447129149654
Sn 15.655322413491977 8.684934127065043 10.930446298265117
Sn 13.063770963740007 15.750372483948514 10.858729342536574
Sn 12.492062379885397 6.435179928312204 12.662504921231772
Sn 6.109503162983983 14.026268586132993 10.406183911631128
Sn 6.848189202331194 6.100998859822323 11.192437544966644
Sn 9.063910152131784 13.644061177707293 9.869939527909294
Sn 11.032366874824984 11.219481947891342 12.79136590792927
Sn 9.738273746806875 8.036072359402228 13.231124630241796
Sn 13.491686663422673 9.493869417424346 12.888211285578446
Sn 14.122368724808119 13.341998271905705 12.509940643214835
Sn 7.0505346125376125 8.926787230655163 14.275192060730589
Sn 7.607683781116138 5.829025960065394 14.257614066229594
Sn 10.868237548274275 14.174766847059713 12.249427838929542
Sn 10.593816019192055 5.34149842984328 15.017560316750451
Sn 9.6413992955687 10.442198846558576 15.342341840880852
Sn 11.893047725303688 8.184817740148244 15.477195145079994
Sn 8.96935762476544 7.5917028221168446 16.452856718791555
