47
Energy = -166.39731525 eV
Sn 8.594103663580531 8.573873356237609 5.542798028010577
Sn 11.628545656197016 7.86796769762417 5.898357523108146
Sn 13.568246861640892 11.491478169567092 5.997385716756643
Sn 9.654336898627914 5.623754120037645 6.220008288985883
Sn 10.590354504378967 11.007256032259813 6.152997614546687
Sn 15.428514298917829 10.196361869174423 8.286336470765056
Sn 11.985829421065066 14.033358024172502 6.892869711121953
Sn 14.452238939627224 13.267745181376927 8.565512640023641
Sn 7.398449578483817 5.832749059342938 8.385927925984548
Sn 9.717230037987548 8.040624840330988 8.326116021254084
Sn 13.789636936146259 7.683966611136517 8.06140496207812
Sn 6.888289673457559 8.956363463414005 8.222103109631634
Sn 12.25664753806889 10.570404099613633 8.660179971312594
Sn 9.227208559753128 13.004737928989144 8.162773417671145
Sn 15.364491774594612 11.596826006427744 11.30571397979577
Sn 11.532611279916136 13.283391973928946 10.051947548852278
Sn 12.82591541428244 16.089888878605095 9.04872349362938
Sn 10.466413451431068 5.093743506883959 9.134537351210698
Sn 7.92280442459752 11.087248347851114 10.246018081918997
Sn 15.46176224315049 8.397378068668157 11.070089767149653
Sn 9.789763771168463 16.0665955636822 9.037466089993714
Sn 6.757534208603869 7.549781101637743 11.021044411146969
Sn 11.698189006582739 7.985526178518222 10.479191943453216
Sn 7.087866776175933 13.27078321190784 12.342465412984083
Sn 8.429115223254229 17.93564875438471 11.108781309642906
Sn 8.38060164991691 4.986789226136577 11.401478843585476
Sn 6.882568775393068 10.045222952573756 13.03513873969402
Sn 6.833124963906357 16.35478234787709 13.104232777492903
Sn 13.62773660348469 5.657022124380064 10.341854879813413
Sn 11.454417147294851 17.518616490367844 11.582753766420732
Sn 12.953365827587403 10.031144238501236 12.270758058315757
Sn 13.990606113729758 7.075225092259443 13.511272124986856
Sn 13.690772079938558 14.49505869033547 11.663214191737833
Sn 9.429914392764607 7.94366357668619 12.438755972630387
Sn 7.61924307242418 12.252510855627587 15.110750030006912
Sn 15.760039867078582 9.714752723282844 13.921114017025609
Sn 11.160061885339097 6.944773933929119 14.892513034860619
Sn 9.54150906052656 15.048341963940972 12.040142335021757
Sn 11.310995305675325 5.230361854216815 12.418459951447211
Sn 9.875929938132225 11.401243002444874 12.60246533354604
Sn 9.434447422474383 17.85808149922192 14.06757828682921
Sn 12.848356897440452 9.529681375416448 15.278178465986278
Sn 11.702713967829881 15.602588044362847 14.093692841650567
Sn 13.801823055618378 12.30120373414471 14.07119855465596
Sn 9.313610330713349 9.497491631371913 15.092443235729606
Sn 8.708096602199735 15.10507581607663 15.242420149298862
Sn 10.81397021889673 12.548922101128538 15.248838938291998
