45
Energy = -158.91856006 eV
Sn 11.721032376947708 6.443098267647024 5.992163150680356
Sn 13.894716090353363 5.453231685551948 8.02391138850849
Sn 14.022023003128359 15.586614164803247 9.741109802024475
Sn 14.184060585209599 10.61832809939172 10.662347714628309
Sn 13.066929819531941 12.190563564639856 13.364694851823465
Sn 14.982800748293386 7.79561420664886 12.408333400826933
Sn 7.474941289469681 15.161931933899714 14.302306874893986
Sn 15.302991010857138 5.124985129429445 10.85164932139143
Sn 10.091874271871026 9.741856075199172 14.554770794574384
Sn 8.582475304875686 11.651154226259399 5.987931278714047
Sn 9.955153497038467 16.547659496638904 12.926457205211504
Sn 15.296625499777493 13.389834077226174 11.545968176178905
Sn 9.437076734662142 14.832195955574106 5.981995343860638
Sn 12.98803811212848 15.279920952260849 12.6936312220834
Sn 12.717284984987705 8.676436122425024 7.781917569724635
Sn 13.036020621403221 5.35469144672472 13.103614624201908
Sn 10.569130578162007 14.175374170727038 14.868824893848481
Sn 6.107006071649241 6.595601464478353 10.305956325369966
Sn 15.44185132601018 7.85797500772069 9.321653857770155
Sn 12.462907974225384 3.991759812747626 10.421202691382701
Sn 7.1061448853802105 8.73132432771233 8.362054998081055
Sn 9.403312365690926 13.434929891627451 12.231036199630166
Sn 11.24941517528716 9.92202694700759 11.643588999219789
Sn 7.724623394366576 5.619982726557065 12.694548170175343
Sn 9.038930410258322 7.480266783601266 10.552248431945365
Sn 9.57115699121905 8.508600247240604 6.650702195574303
Sn 14.243753811695328 12.81804101194082 8.479384734039677
Sn 7.998544611736554 12.157139813284482 14.953705063343035
Sn 9.745512427043627 10.600500634639852 9.00535797780504
Sn 5.287326393312197 10.48062605257305 14.25121298707007
Sn 10.489714823133118 12.915123783797846 3.9848376391030174
Sn 6.570853808478978 11.423528111074102 9.605314507877228
Sn 10.369077953610502 6.95417973577088 13.315870957375063
Sn 10.892370883461705 15.738776856226615 9.954835813689416
Sn 12.5745038158115 7.2052940681894 10.636164182684924
Sn 11.477345692866486 12.89510762436937 6.971337565580882
Sn 11.55223146149929 10.443245204731923 5.275939350282138
Sn 6.152035536727525 13.056756943111003 12.463178374358812
Sn 12.10069895479938 13.033021122736178 10.568320073016514
Sn 10.627759059801308 5.71848539661731 8.651283328528152
Sn 8.790286900409027 13.585975411255731 8.687529425378035
Sn 5.389185708443273 9.209164763157048 11.564593608538836
Sn 7.568919542041434 15.563333735820127 11.149606141268976
Sn 7.3081376672352425 8.243173281944772 14.102568902680416
Sn 8.176882337208408 10.536234177117649 12.148004397153539
