46
Energy = -157.88278764 eV
Sn 17.223118214266364 18.300512194811997 19.079533597772265
Sn 19.78903279301805 17.30710174016131 17.281722994101106
Sn 22.73522788306286 16.124436510966163 17.668352403695177
Sn 18.02336153307224 -1.907509924419642 17.668270517262485
Sn 21.043711718665232 22.96379468454207 -1.6524981976482007
Sn 19.4438003993867 22.35497091005272 15.029348605956018
Sn 0.5502805893539348 15.53244234160019 18.66082636373494
Sn 1.1168585623012444 17.534225702918523 16.52557899768278
Sn 16.90091893620277 20.900035301250462 15.883014044176182
Sn 3.3100180547944142 15.344192053926417 19.67838408720786
Sn 19.559120406979396 18.578568260903204 14.3847725576463
Sn 12.371033030946103 0.285446952965112 23.435261858430433
Sn 23.205761804514935 16.47132090679984 20.762048466360653
Sn 19.693863836507088 20.077929340226554 19.475351111117565
Sn 23.158975376119557 21.50894347524979 -0.1531844130413789
Sn 0.9125972912137205 15.195699562541826 21.74601349689823
Sn 21.837671145493143 20.816452932340624 21.513454767210437
Sn 17.717247346703786 -2.694615906250776 23.777925037154837
Sn 2.469281785677201 18.292715310819595 19.107613234034442
Sn 18.939759041153437 15.497419102376954 15.09470739175348
Sn 14.730998615518985 22.726231716767387 17.124336673343784
Sn 18.436101819997138 -2.519423454478899 20.73351009688573
Sn 15.881400044304662 21.01221166130976 19.40943921384083
Sn 16.962326454773986 17.87765061099931 15.948595297626712
Sn 20.33547173039697 18.125872724912533 21.848260828246207
Sn 14.72339189066333 23.576073444322816 23.210315654695744
Sn 15.549058690598098 24.00375244148549 20.244633157539305
Sn 12.527542226819893 24.104666267943834 20.73907179000145
Sn 15.945349002820537 8.501486203439205 24.874997931107135
Sn 0.48337806045933884 18.376692770388484 21.641790396874917
Sn 16.602104932618207 -1.305510812319504 14.591263085551024
Sn 22.871088896568885 18.716316091802085 23.5949729385272
Sn 18.930410595780746 -0.22739160254684304 22.449986036500945
Sn 11.807683178872526 22.36403674888166 -1.6680586917290514
Sn -0.35960967601941507 21.184369992042154 -2.7770419197562006
Sn 3.1810671335757017 17.2198191871974 -2.976425644682422
Sn 21.627178189343446 16.33465125034425 14.609222180570374
Sn 18.97217774224981 0.2160872286922498 15.746629130868081
Sn 16.120707117020288 0.4029346716039257 17.23035820366507
Sn -1.6082658887074317 18.559291312762497 15.686964364747928
Sn 17.609933433231856 19.7404841595599 22.072013337502085
Sn 17.4427093652014 10.640169198082297 0.8889335392284355
Sn 20.105173024771915 20.162482107569648 24.26926823232034
Sn -0.7661685128710742 18.7499632784784 18.810089103164586
Sn 13.695461997746179 21.38743715696108 21.40863584494348
Sn 21.026505888800994 20.091802819149407 16.68374680288317
