49
Energy = -173.38681367 eV
Sn 15.364116034465221 12.12735075452717 17.458034626320433
Sn 16.325918405668435 8.81546428709787 13.98342210467517
Sn 17.475216927948996 13.142779324436482 12.31977289722148
Sn 15.550857070714157 8.99726042293817 17.25334672548344
Sn 15.959277820503328 11.754901745924581 14.51347664389781
Sn 13.547405700943044 10.26935351833972 19.174665893218464
Sn 16.87217925734555 10.849723140820966 10.570501060346276
Sn 15.150351178121502 17.09066999099796 12.183891150223094
Sn 12.653435357751809 13.1161217441305 18.35118541404576
Sn 15.345886507315255 12.497779969031818 8.53259285518931
Sn 14.151983585062574 6.966205679719607 15.178027395870233
Sn 13.241492480638131 9.881556233989054 14.867268772998145
Sn 14.391241592772806 12.857447920824194 11.70244850679902
Sn 14.015671453836848 16.10505813865757 14.824606575877988
Sn 13.23344834223664 18.822974648197725 10.721414336687571
Sn 12.273435435089532 8.107477808729817 17.403796171007443
Sn 16.136045720398204 7.984295027489636 10.941928365394583
Sn 13.015885020818741 18.80144066742827 14.013467765935175
Sn 16.125676517914332 14.906172579987961 10.309985377798064
Sn 11.189919947829402 10.974349575011125 17.006857216274142
Sn 14.957295930188785 9.236680040191318 8.27803612712637
Sn 14.00142052071623 9.86714962965198 11.864514189579221
Sn 11.498832109864404 20.626646553620866 12.35350243929597
Sn 13.080495375547386 12.965752199263589 15.234342900537786
Sn 12.514117362857235 15.315727548491632 12.367236333250371
Sn 11.27084001958218 7.43356926845752 14.183895712373364
Sn 10.804036627286488 16.55547186216846 14.685107541349469
Sn 10.402789467717492 17.923123313370926 11.992309543884858
Sn 12.799882083493149 7.652809537545584 9.90968463175489
Sn 10.55818053621399 10.416018281789816 13.17642892389984
Sn 11.949206969654346 16.262026276594415 9.628596839816613
Sn 12.2414774709451 12.981219896091066 8.76853552995367
Sn 10.085337473931316 13.577787993964458 13.99184721479918
Sn 11.374945915223384 10.406775622797454 10.135723819263147
Sn 12.361407921234672 8.308678013694687 6.888591659024451
Sn 13.61937491484805 11.179832724329604 6.288109240928512
Sn 9.234901886037179 9.11077012739074 15.674314754106147
Sn 9.901919983985875 13.62052716349267 10.94364503888073
Sn 8.07112662790039 15.799429818552936 12.71095713233918
Sn 9.832097800575964 7.808517950065402 11.440892115817112
Sn 8.822196648763533 16.30472188372331 9.737508791546341
Sn 7.608410746710947 9.490355156944691 12.94394284240065
Sn 8.968195880719879 13.645417926637293 7.884090244945926
Sn 10.67931692644053 11.028603737200145 6.884036599658589
Sn 9.639913840292108 8.397611433159183 8.38000120657605
Sn 8.279647875743834 10.94330349971635 10.345702990853344
Sn 7.326713158548825 12.626344626584874 12.834606239608394
Sn 6.751757624446574 13.9816979396359 10.159930618647993
Sn 7.72266986003992 10.881835321127216 7.435278692129837
