54
Energy = -191.27595046 eV
Sn 15.067079796947596 10.887480142797617 13.166456622378877
Sn 13.254062221749228 11.830556014030481 6.634904631812565
Sn 12.598640472752885 12.725332365720929 13.049496537721014
Sn 6.816576375620522 7.532867438918129 12.783869662450838
Sn 8.543202891085501 16.933121581633056 10.619799886949108
Sn 14.619916566312902 12.785272595514085 15.480088818256569
Sn 11.942121860050767 14.569840946812475 15.603809635843978
Sn 7.0437877502516475 10.007377123357072 8.944584743269306
Sn 11.997553631483873 9.735379055638662 12.915269147280304
Sn 14.263170411980195 17.41780121449406 8.890536156504753
Sn 16.740619709138652 15.035353919627951 9.684257132690947
Sn 13.008156467826577 5.579996832796377 10.835115532286855
Sn 13.166004352872251 8.641561078889604 10.285404645329582
Sn 16.1959308987468 12.215759591419822 7.826663602571345
Sn 9.509974766497857 13.029897025830376 13.863353757661216
Sn 10.154244450726145 8.768138958987791 16.342594172532635
Sn 11.223274878578207 14.046842734405384 7.770786382686243
Sn 16.245267823922212 9.100944600303063 9.829209325656809
Sn 15.316598095344496 6.376388870832618 8.820410922974958
Sn 9.363489019977708 5.818111359747622 11.63255471620406
Sn 6.783019742379434 6.992776781108081 9.755108534704489
Sn 14.122994297260483 8.332084804454642 14.733669612917815
Sn 6.024525186492521 10.502261640013238 13.518080913156089
Sn 10.626658062212522 14.705851257895374 10.918690461687918
Sn 13.755945145719608 16.180219752365222 13.731117213223436
Sn 10.534397904088877 11.761842872342898 9.983142585477433
Sn 8.518046667438778 8.078806029057956 7.198927525178372
Sn 8.92691997041948 6.415722212806772 14.651836007109319
Sn 13.7854046930581 11.796064094971964 9.679324568073634
Sn 9.627471899316113 12.171203292875207 16.86492012374402
Sn 16.895067751933716 11.969770872041424 10.876138115495142
Sn 8.762777935386016 12.327826685964638 7.437650623043605
Sn 14.340603273183497 8.926761263370526 7.355197533224473
Sn 9.014761270618584 9.461769091568813 13.572622033110122
Sn 12.138579749753262 6.803153686979433 8.053572085132318
Sn 7.103153467411661 14.719717575798173 12.95429614194463
Sn 8.915582948775299 15.152088949877689 16.26226634863398
Sn 15.353249606393499 7.183254527839166 11.975718808631376
Sn 9.851756063502908 16.212232608147012 13.510096259486044
Sn 6.804306249375137 12.991649581696317 15.52096873520993
Sn 9.591676354579775 8.56442787047055 10.171954016335071
Sn 11.811205451054134 6.709358313170129 13.509269796700387
Sn 9.278528344936063 5.507128957623022 8.647411502947316
Sn 12.387210961762651 10.773137509469818 15.772883597621782
Sn 15.703665449643779 17.378346912445245 11.614471811056736
Sn 7.748854775446246 14.197465937059384 9.637576542174537
Sn 16.09146194897984 14.37591732353075 12.793656089181008
Sn 7.39450590104483 10.041524134431125 16.22014371964025
Sn 12.394911895730246 17.686124859956045 11.385340360272023
Sn 10.963744204052169 16.92380372137736 8.68238771460452
Sn 7.788842862273903 11.778818976172946 11.391975361162242
Sn 13.76810110721569 14.844814920882682 10.766325139026446
Sn 14.338735033153533 14.660079878623215 7.555000692337694
Sn 10.86971397594133 9.922022244255185 7.405145987093011
