51
Energy = -180.44383875 eV
Sn 15.18593745398806 13.18524214455605 16.872183149130464
Sn 11.495801885003038 7.2598585843504 16.581443858264056
Sn 13.565723760313693 9.68817042245587 16.645523976122746
Sn 9.183467148841094 9.227760494829251 16.46812680495027
Sn 12.48604352316906 14.53359050241622 16.39922161236715
Sn 8.968247397502363 6.391296906336724 14.647248588693126
Sn 15.93392733973305 10.813541845360344 15.133316356255706
Sn 10.873364087845658 11.856980524375723 16.41351146140506
Sn 13.873045383941715 7.60788379846735 14.266028744903085
Sn 16.08755563866866 14.185513925243594 14.245309458682422
Sn 12.948021993555495 17.15353279376472 14.737967183917638
Sn 8.011187717611636 12.651175856666063 15.431739228263927
Sn 9.567152549061113 15.297263017935851 15.94572876344378
Sn 11.188497750346901 9.117902926319998 14.04027733580388
Sn 11.95310085895055 5.10221189787376 14.515658080355724
Sn 7.789643709974624 9.274075234324075 13.755930856204138
Sn 13.201797560662476 12.070272510324944 14.483883971681845
Sn 17.081256290878446 11.817579371530936 12.259137425262741
Sn 11.456455475517751 14.743141617048229 13.340291607123072
Sn 14.265651759576336 10.130746005568087 12.190323585611784
Sn 9.8787774293798 4.707621418562776 12.286247559199591
Sn 9.999526809919216 11.87984497022793 13.148657037713102
Sn 15.301675861147622 16.63410870701035 12.662133234237805
Sn 12.239763193687594 6.649730980701898 11.724988780675089
Sn 8.270998949368247 15.082369109107615 13.182429921555626
Sn 9.234029839970164 7.529311554447921 11.558327920243636
Sn 16.38608082401026 10.457354279244779 9.26074015100118
Sn 17.79268804548383 14.774647318196921 11.8263358887949
Sn 14.388665804710817 13.540170341085416 11.72327720048046
Sn 9.881614156818335 17.718755059790116 14.003302280124716
Sn 6.891163884797804 11.974302960689503 12.61704835814159
Sn 7.286718943862423 9.503442870953693 10.590785341407292
Sn 11.703252493564108 14.106412618226656 9.824453615400255
Sn 12.141105143620898 17.363648258597053 11.841295465179616
Sn 13.472663571924569 11.43117394796532 8.816126686048701
Sn 11.54638797915877 9.68753122699823 10.726075159422896
Sn 7.098488816372384 15.500934744811902 10.438715967249573
Sn 14.248048813124264 8.159893688983816 9.6631091414921
Sn 14.612102129688898 16.014138865669697 9.760997025116382
Sn 15.4983670020285 12.356938942461841 6.587368281676394
Sn 16.51020139153001 13.61460060231434 9.341543148112672
Sn 8.91544642481726 13.053332621370792 10.380838454027584
Sn 9.198999834942294 17.686303061280558 10.848478142946039
Sn 10.210737869547554 12.882422122166437 6.91933412867629
Sn 9.27188929363056 15.495816743090044 8.295013967752825
Sn 13.003358252445443 14.115569654577808 7.056140901109764
Sn 9.455777918298036 10.581683742097244 8.752615000731334
Sn 11.73900479114146 17.13360447101035 8.858837050065164
Sn 12.683226030183551 11.183493419448059 5.701174766683387
Sn 11.996029421294454 8.862663411043277 7.641711575523675
Sn 15.066344488162038 9.27899908866183 6.7193837281340505
