55
Energy = -194.27639948 eV
Sn 7.295584105612828 9.769064188857806 11.951201509426706
Sn 14.108118830176355 15.160556782606497 16.327537015739804
Sn 16.838944154044764 15.109087752760821 12.409705624573583
Sn 10.772942090696903 16.028157467635626 17.190189317583414
Sn 10.815544165866838 17.517812123999814 10.12538830624005
Sn 9.832031728713318 16.59172748966258 14.244907632416982
Sn 17.66543886322146 15.891615958372606 9.482040304498748
Sn 14.246212339512535 10.24236675748981 14.573843965670454
Sn 10.680397923049567 12.694670803292285 17.83750046222822
Sn 19.623789569957314 13.46796471304504 8.456243216134476
Sn 11.544559393262334 8.867709886196652 9.599345992660083
Sn 7.689116530659455 11.499431864260897 17.330708004194612
Sn 9.50675112957855 11.309114953902377 10.71391450441528
Sn 18.89912001982386 9.307690871260212 11.33609229646786
Sn 12.034180122500421 9.454928704324448 17.676210573568913
Sn 12.230764177329958 11.028107409746953 11.801268875997517
Sn 16.40402511955497 12.892412138005048 17.992066463235645
Sn 8.395796448200768 13.431134861572811 13.021233489111147
Sn 11.231547047052969 9.45164841325858 14.714979172336585
Sn 8.351300735099478 10.539294688531815 14.568607620629704
Sn 16.45045109685343 10.10576409201771 16.655882084726823
Sn 16.461503398632143 13.282272087616894 8.34413132342798
Sn 9.05542978855397 8.512591291474418 16.771425705284447
Sn 13.566915243631993 16.501199485460255 9.330959022325656
Sn 12.56945208835649 13.72791124719152 9.82319770218689
Sn 13.616022328851988 12.069162762416004 17.017320285920185
Sn 13.588301527473757 13.238639774007217 13.969937911043083
Sn 14.076286441373306 10.527982626102483 9.233518116367456
Sn 15.897693099926233 10.19617703366743 11.993731255534403
Sn 9.558801224525656 10.207338144619019 19.236859316718704
Sn 18.193953134458848 10.327882956637898 14.18413357051342
Sn 10.699802557970655 12.505790022336022 14.813354339535888
Sn 8.304123148354323 14.37567755439807 16.007592344843843
Sn 19.7914145380829 12.926271435937258 14.110285701703402
Sn 15.256779927911778 12.990841909315103 11.110789885433476
Sn 18.33595187014458 12.135119619029862 10.80396077039622
Sn 19.771308809775054 14.788400936906855 11.5463341843439
Sn 15.646929978057612 17.67402475515552 11.177202129111063
Sn 13.010020542807158 16.4135054195604 12.398876114395216
Sn 16.893532569049878 16.36517780758759 16.96834222754889
Sn 15.78462714432903 17.245599326883866 14.325627699301906
Sn 16.633542833893088 12.865096766786595 14.892655707002332
Sn 11.096276185649709 11.577873357309418 8.264149118975473
Sn 16.6354078483067 8.752157111241068 9.4206030174927
Sn 9.9727556116793 8.43919061639072 12.1569866080292
Sn 18.93790407539402 14.133597743074953 16.742891418416953
Sn 10.310585899970983 19.08745613870879 17.195551719832217
Sn 7.869815565810729 17.42918007464124 16.560467937809513
Sn 8.665492660813015 19.544335474168648 14.526239601553216
Sn 11.533428877600075 20.78737320021324 15.030868855826439
Sn 18.261758109273355 10.875202716147522 7.90929989475276
Sn 12.607236310902776 17.81453661436529 15.236029573494221
Sn 10.55677611693429 14.967280092409272 11.597749617817877
Sn 18.88194487863615 16.182380181221145 14.413716827768292
Sn 11.159968503243283 18.990870227362045 12.694702494580143
