52
Energy = -183.87860782 eV
Sn 16.77005307852719 13.427436272504082 11.034341320830423
Sn 16.007510548799235 11.561085144454369 13.620332660056446
Sn 17.169703760149055 11.134231017388739 9.04329012930466
Sn 16.072240141780807 16.263009197176544 9.865122882819678
Sn 14.108042061057242 14.19967863921496 13.629544525970463
Sn 16.85459795177094 13.838690763432387 7.707239681013559
Sn 16.450959751233917 9.323164589404723 11.479228066384376
Sn 16.134252161909608 7.212862658929413 13.809898310341552
Sn 16.090188231569726 9.486948569182486 15.953298109468752
Sn 16.491579186304694 15.930033476470772 12.996797372082401
Sn 14.03086642011373 11.525932676876035 17.577134871491033
Sn 14.185621302152931 17.176635498578165 14.955997843854535
Sn 14.04401203623513 13.827544031269166 9.60479920511082
Sn 15.398955044873228 4.699025195819102 15.012612174704659
Sn 13.031046198184253 7.842239264727982 11.471023151719224
Sn 14.377064333127652 15.771847750626012 7.1498643968296784
Sn 13.917638341112085 11.24604446588469 11.38885124214718
Sn 14.421926680046871 12.005759887016996 7.2227930831055485
Sn 11.507971978780583 9.908015989318177 17.816056191791798
Sn 14.544678843745288 9.381580162235064 9.054426259249707
Sn 12.471274627673356 16.585445615015434 9.522257636048192
Sn 14.250684141388254 7.06150669390503 16.496245126506818
Sn 13.987838441433896 17.36494288831063 11.995920544263688
Sn 13.782874751735788 9.3658811321739 14.033681826630417
Sn 11.770278195218893 14.238586089124281 11.690904840265839
Sn 13.000600637959165 5.831921323817436 13.76588470789377
Sn 10.978236266848594 10.200777654714557 12.002711896455322
Sn 13.257285766308772 14.414455560128173 16.56596890839029
Sn 11.455042959373326 16.325809175808317 14.019401771743771
Sn 9.694753625509161 16.473472291321404 11.446107483815156
Sn 11.978281036106035 11.714954439355472 15.29431165279105
Sn 11.466785372039757 8.09964409013914 15.313931757919091
Sn 11.324818826359195 11.292317534681168 6.085538533784836
Sn 10.222591027823974 12.772437232877436 9.266738335255418
Sn 11.186296776590334 12.905850113273626 18.422285793898343
Sn 9.005990864744778 11.432683687848705 16.509188088798936
Sn 11.75746084377112 14.241273664455347 6.846731975267264
Sn 11.18711276286669 9.919040921756778 8.847281123867091
Sn 8.234622000620037 9.944602965658646 13.919004593079162
Sn 9.576573058303095 12.76678483488439 13.42441474548324
Sn 9.41674770848164 15.554466934629867 8.32642221116098
Sn 10.041109815001413 14.641416954132003 16.218938312105426
Sn 9.708038383526157 7.505438890971534 12.850153401663423
Sn 7.455200109388093 14.811316642817715 12.530431162575963
Sn 9.011605270021036 13.355981595536264 5.855882938182939
Sn 7.1455674396635835 13.887067716436972 15.394720566583898
Sn 7.155028411239997 13.457397959385018 8.311442500894708
Sn 8.398588098903723 10.714858075863381 7.474167764078596
Sn 7.90910492317806 11.724532189194479 10.953560820771814
Sn 8.647415652654555 8.875573357188811 10.155804191150454
Sn 5.344297691902306 13.359340469952471 10.960017650163884
Sn 6.014526479689634 11.81984317111927 13.519460308320324
