50
Energy = -176.39119155 eV
Sn 10.749358889412484 12.284231798472401 4.753726039414366
Sn 14.155245430801425 7.338963126215381 6.119091308766956
Sn 8.021827600212621 8.406673114203636 5.773517370510707
Sn 7.9229947379359835 11.40934263085422 5.411034985231989
Sn 11.025385495038863 7.409862691372718 5.189147837622505
Sn 11.679546840908209 14.479662759173848 6.577288427239059
Sn 12.813406463388045 10.085840102144099 5.3288012925821455
Sn 5.979396088791102 11.093314994602578 7.846970524667674
Sn 5.405262024331109 8.031276420245337 7.640609610332173
Sn 12.312735119602387 4.877497195477546 6.3312260559611255
Sn 9.487299222766346 5.8579984986552125 7.527120277446005
Sn 10.22177251640903 10.42478458970259 7.122849725927416
Sn 6.422549913193688 14.215317590473752 9.053178327772653
Sn 9.313327993854362 15.089664399091058 8.371524942553087
Sn 14.39336490425277 6.137735395965611 8.937907529083935
Sn 13.760798576160918 14.91611357592072 10.802228447014322
Sn 16.794736545029547 10.653971367973433 8.804657800152443
Sn 14.339543514598757 13.945669508191827 7.952174482660332
Sn 8.175145989963404 8.819180663104905 8.895847805970037
Sn 8.542494017283357 12.00836889239871 9.299600670997503
Sn 11.907823548595166 7.67382941307292 8.198023547295186
Sn 11.757168468058628 12.959661228448368 9.226188159018728
Sn 13.944351714487109 10.844446163326202 8.0497670621756
Sn 5.27680645383858 12.083882489708168 10.849934344191801
Sn 6.158833250261854 6.861783743351169 10.440389618178601
Sn 15.265506058425354 12.258253493035513 10.822469688186413
Sn 11.598969851455555 10.042452044589513 10.26509415926876
Sn 4.110658406318914 9.387905677834157 10.11853890082138
Sn 12.678279619316044 7.428759692142557 11.828923152409978
Sn 9.720637310187124 6.851030160360363 10.619504814726776
Sn 13.5593132354787 6.199528073053326 14.375808334404422
Sn 11.788165643290167 4.663908136399669 9.418004565845248
Sn 7.6236242790903495 15.195159307491172 11.82534030026861
Sn 7.154284621968421 9.817227350639607 11.668300135681598
Sn 12.259313095234367 13.310266493645335 13.162016097629355
Sn 13.533143901824573 10.55826946458269 12.6078005171704
Sn 10.635266917553134 15.344275535747114 11.08015336236549
Sn 15.081118017889878 8.89185618441732 10.417020562100348
Sn 4.87488551315289 8.03670054430581 12.96402797915304
Sn 9.44069606118422 12.566115149187842 12.251776170163375
Sn 9.962450141630697 9.379892946194422 12.949613671523105
Sn 5.23529568916098 11.151575398364287 13.805889089842756
Sn 10.75103883193335 6.9416086886966415 14.691043376155005
Sn 7.897222978095892 6.689319104281437 13.260669234995307
Sn 7.4125113749284175 13.435380318590367 14.30814589914372
Sn 9.94806889097357 15.490794723607488 14.0020365737086
Sn 13.254874309763423 9.04850582721237 15.161029837423916
Sn 7.366712869192064 9.290915059574523 14.807658401815344
Sn 10.154918341929127 12.674577272139167 15.351534034783178
Sn 10.378185794680554 9.682968075594363 15.981112021481584
