51
Energy = -180.83616419 eV
Sn 15.503549118531847 5.9461914369241295 13.722964186911362
Sn 15.41212928182489 6.393455141128477 10.647817853319308
Sn 14.545850362063895 9.461167785554272 8.4561685509323
Sn 12.559138174854318 7.10972036816974 9.63028224309041
Sn 12.916328390301597 5.213375780042979 12.203135343908553
Sn 11.529337779306925 9.238196588642845 7.222012935097172
Sn 7.516400308902045 8.748403301087722 10.558273053285333
Sn 10.5840505784523 7.618513275927726 11.918987168992539
Sn 13.914429690113511 10.247748134244342 5.519911403081214
Sn 5.424026767440828 10.470820666082655 12.277065444125975
Sn 15.818027622325893 12.153624144583494 7.244290247519695
Sn 8.645848491313226 10.83521408267408 8.287891919906865
Sn 15.07492583115505 8.777121749619289 15.014769412264219
Sn 16.650459014750712 8.717636617778462 12.381813624391464
Sn 16.39970352694129 11.243680488264554 10.377788526240966
Sn 13.286687168356472 11.521186665500089 11.025809674121684
Sn 12.652240744288278 6.8134559863349375 14.782069702975901
Sn 5.723409180788278 10.832954066242646 9.29108785406941
Sn 13.652995465077774 8.563121580866754 12.169076862350954
Sn 10.250159909447584 10.587788183998578 10.801289363291465
Sn 9.655808388668522 8.093937104147507 14.947322900405215
Sn 11.021328951362506 11.760159106949175 5.553677955304919
Sn 8.284986855742774 10.12121075609722 13.189553218487909
Sn 13.642317209661728 13.393801771884556 5.3874149564865155
Sn 12.690526312118644 11.997235674414284 8.036429784888659
Sn 7.746334973710671 12.495923097993172 10.869073700561227
Sn 10.887155666732761 9.659618982487675 17.221805939580463
Sn 11.89778797776661 10.241354258937287 14.238757436004713
Sn 11.542197663186316 15.068700958420749 6.994430321834311
Sn 16.59632228470855 13.8145188172245 12.358994777266105
Sn 10.925480837716204 14.124650392728705 9.99290331345765
Sn 15.70660533695237 12.504427671749097 14.992605689323325
Sn 10.006519091979893 12.91924832556228 14.216648504969749
Sn 6.6443949155175535 12.850234951574473 13.92575858766683
Sn 8.074130676170915 11.020867463970218 16.208810573508092
Sn 13.68785328419584 10.856729792979156 16.711342936143524
Sn 8.738154412261597 14.029425480686063 7.68624038494561
Sn 14.796737339261893 13.908843338834728 9.771215869652805
Sn 10.500149740043655 12.744669773426772 17.30034679553762
Sn 13.495711741300378 13.745628637884646 13.199939124788807
Sn 8.013081078856553 15.523527509947952 10.287495504065634
Sn 13.41330211865867 14.2707758625077 16.303130440619725
Sn 9.854612622640323 17.140842289324027 8.54218689753726
Sn 14.922389780653129 16.28914268056238 11.951833876776528
Sn 15.82821565028493 15.598840583717186 14.972501210669154
Sn 8.475612853455765 15.408019968307672 13.555769351939952
Sn 10.713261757147674 16.844178242991614 11.445731355040044
Sn 7.73084905665019 14.013381597867461 16.589742841931752
Sn 10.34433314120035 15.586742315285905 16.04905228327138
Sn 12.958251370747758 16.47217843144288 9.300763723397711
Sn 12.861267262217925 16.541331444588767 14.23948335907921
