54
Energy = -191.64265985 eV
Sn 17.053048274420178 16.93277201090318 12.662364692471652
Sn 14.002872446289548 16.102111629578086 16.418290596451087
Sn 17.0125534522611 14.16327681391127 13.934710729137523
Sn 14.435131606174888 18.020509891762334 13.871745483792587
Sn 15.330845073638452 13.27358377537929 16.246296925519243
Sn 17.046886908142646 9.708295914118724 13.808731106927778
Sn 12.9685504923156 13.175866691602137 18.280830056299603
Sn 12.136442642348507 10.288124746112901 17.655074071392104
Sn 16.833655807791153 14.709826952312739 10.486536099608925
Sn 14.859651284404563 10.270866487629604 16.04029220899705
Sn 15.830773822859415 7.365514954564765 12.320180304444186
Sn 14.955550103514089 17.945888520661004 10.703467385450935
Sn 11.495610602320443 16.9409119696881 14.779960287088796
Sn 17.909715303364333 12.047678692662938 12.02444761492649
Sn 14.203689720840115 15.272151319993437 12.3358844822597
Sn 11.313897460301582 15.67998231878173 17.710433429643427
Sn 12.375194594923013 13.785335010316532 15.030397750729922
Sn 14.98082689378678 11.94488265608241 13.269983323911529
Sn 13.923464589871353 7.654086209541289 14.636841871743204
Sn 11.087082761023273 7.59352424621058 15.93332413703435
Sn 12.003820328616822 17.996544683064435 11.711343387478871
Sn 16.1620895545976 9.853662643049995 10.705094098645661
Sn 14.023317804548592 15.652542405593994 9.068857121382935
Sn 10.205128148250575 12.661940349649718 16.985294361507016
Sn 15.797875604518683 13.742771483036183 7.619271463026178
Sn 12.089099283382659 10.33106152562484 14.494064560127384
Sn 14.453079680878416 12.163439411479311 9.765950236371724
Sn 12.233116067374855 12.359052519381157 11.867147979346159
Sn 9.200413357532401 9.955402239546874 15.614041607467119
Sn 9.315468353760433 14.803366925432517 14.899837854658442
Sn 9.350193536602811 12.161113712074089 13.155498777340126
Sn 13.20580479777921 9.0706092320319 11.746865041767304
Sn 10.78183931856985 15.192253106984676 11.750236944762952
Sn 12.593833560312113 10.036972208886729 8.164073391274194
Sn 11.143935109939429 13.673507462096218 8.987037499922721
Sn 9.85143036689671 8.660807021016637 12.504279343094478
Sn 11.274423460295948 16.862897906361614 8.672559637130782
Sn 10.153796770943952 10.678568264811876 9.831735408480608
Sn 9.116726439125594 6.003066640273703 14.058899506460508
Sn 11.917082535264685 6.13837829409201 12.805004236752335
Sn 7.001951868511745 7.245486533279014 12.275957423199795
Sn 13.034281594765014 12.92926467572042 6.663653531741173
Sn 10.27217032520596 11.257330479605052 6.337908487331177
Sn 7.69801906612992 14.733044165946485 12.109748877488139
Sn 7.017759583900609 10.168486461870563 13.240842610976356
Sn 7.374366218917288 12.009468530282199 10.810999937641363
Sn 11.619890939746382 7.113072255940547 9.721603493187494
Sn 8.617922474395433 15.609678747564537 9.38400451889708
Sn 10.192749925739898 8.302350819024618 7.099475338082593
Sn 8.485940638323262 7.912150894015203 9.684066584446786
Sn 9.42850934698517 5.338760012870342 11.043544178136909
Sn 10.898657780646397 15.004528378010537 6.18204042164058
Sn 8.458699457389487 13.510342670161195 7.29107317995541
Sn 7.680712011501603 10.403983807586581 7.995005463584752
