51
Energy = -180.71597525 eV
Sn 11.096849262419509 11.153104636987194 5.049843438225324
Sn 13.081255669655183 9.440284854699797 6.471738110464547
Sn 12.423459609330298 13.537571440516942 6.650672782557752
Sn 9.469649778067888 8.778513069120018 5.915480802883959
Sn 14.963591562046746 11.931765178029638 5.957015535637547
Sn 7.332828986011471 10.602929202475734 7.186525024250694
Sn 6.372026164408725 14.98142786410429 8.467825266252428
Sn 11.236216876783615 6.738514032776546 7.492805035077221
Sn 10.25351421415899 11.2394934270027 7.99962841241729
Sn 8.750441321485456 13.787437022320056 6.925194175936407
Sn 14.281017796620276 6.854099429392194 7.092227361274688
Sn 10.840271792805163 16.00591595283237 6.931562310291874
Sn 15.304056602103666 8.205925591273108 9.818051196395482
Sn 8.91346906342536 8.328472177894769 9.128449135383372
Sn 8.367767474735913 12.959761440200811 10.002818515701355
Sn 15.25410080062216 14.896545122624339 7.115717431300145
Sn 17.174166631232968 12.790558133216427 7.997385496726008
Sn 12.190914175074735 9.089698896566947 9.418134308829595
Sn 5.732247072008159 8.745160740220971 8.94481412588687
Sn 5.383780489391723 12.205912348559936 9.732240720535165
Sn 12.49021436489648 12.749121233201926 9.664568324761449
Sn 6.390491779264775 5.797432463270047 9.451202124482341
Sn 14.8804384717959 11.041973277628477 8.894013121514952
Sn 9.13866132443908 15.87127479956861 9.462753540815148
Sn 9.474227890128802 5.122720246750647 10.229735250655137
Sn 13.071639708402744 15.706704912983069 9.148109944115017
Sn 6.963420508786488 3.821773110539104 11.90074139576672
Sn 11.178784601031236 14.755870946179392 11.636062857323777
Sn 7.569502347401181 7.01308568861597 11.969626474987772
Sn 10.326291331087344 11.552127740628062 12.025925752770254
Sn 7.452165613667622 10.138297254205844 11.472742839990289
Sn 4.6157314116567685 6.119117765533002 12.09132975081577
Sn 15.510524094532471 8.417472618512335 13.072428924955629
Sn 6.136371694162198 14.953333298780647 11.53167663805415
Sn 4.415210681152692 9.631563099781232 11.533226799100223
Sn 9.373032097948746 4.828145271254223 13.48108687556703
Sn 13.044984579926998 10.075937654020752 12.245026411660305
Sn 15.700984565112078 11.46628128809639 12.484951765943418
Sn 15.46447039229201 13.980613543456075 10.212695166279442
Sn 8.491705708687315 13.944730185096587 13.131267258115134
Sn 12.978121660297894 6.2094871160869864 9.97838942034564
Sn 13.224685595683438 12.928125718725074 13.594572278241685
Sn 5.497100753123028 12.340428101401612 12.929873814045424
Sn 6.533025820909676 5.526252017508866 14.57612814006235
Sn 10.724247914256255 7.409504084989573 12.052507584474535
Sn 5.775103166447083 8.513152787073953 14.03768056162018
Sn 14.603572322488393 10.555678867969073 15.271732347067658
Sn 12.759962513757506 8.067314320469038 14.487776164968704
Sn 8.115886297065614 11.225693667869523 14.376645999670732
Sn 11.480036599964091 10.866946830874998 14.983949482928015
Sn 9.01598386383748 7.914954544707069 14.591648819465561
