55
Energy = -192.63347046 eV
Sn 1.5426785868561102E-7 1.5426785868561102E-7 1.5426785868561102E-7
Sn 1.5426785868561102E-7 1.9429330497589152 2.724894512193902
Sn 1.5426785868561102E-7 1.9429330497589152 22.860611739089787
Sn 1.5426785868561102E-7 23.6425722587768 2.724894512193902
Sn 1.5426785868561102E-7 23.6425722587768 22.860611739089787
Sn 1.9429330497589152 2.724894512193902 1.5426785868561102E-7
Sn 23.642572258776802 2.724894512193902 1.5426785868561102E-7
Sn 1.9429330497589152 22.860611739089787 1.5426785868561102E-7
Sn 23.6425722587768 22.860611739089787 1.5426785868561102E-7
Sn 2.724894512193902 1.5426785868561102E-7 1.9429330497589152
Sn 2.724894512193902 1.5426785868561102E-7 23.6425722587768
Sn 22.860611739089787 1.5426785868561102E-7 1.9429330497589152
Sn 22.860611739089787 1.5426785868561102E-7 23.6425722587768
Sn 19.808862598568542 1.5426785868561102E-7 22.701946097123766
Sn 1.5426785868561102E-7 2.8835592114117734 5.776641767219217
Sn 1.5426785868561102E-7 2.8835592114117734 19.808862598568542
Sn 1.5426785868561102E-7 22.701946097123766 5.776641767219217
Sn 1.5426785868561102E-7 22.701946097123766 19.808862598568542
Sn 2.8835592114117734 5.776641767219217 1.5426785868561102E-7
Sn 22.701946097123766 5.776641767219217 1.5426785868561102E-7
Sn 2.8835592114117734 19.808862598568542 1.5426785868561102E-7
Sn 22.701946097123766 19.808862598568542 1.5426785868561102E-7
Sn 5.776641767219217 1.5426785868561102E-7 2.8835592114117734
Sn 5.776641767219217 1.5426785868561102E-7 22.701946097123766
Sn 19.808862598568542 1.5426785868561102E-7 2.8835592114117734
Sn 1.5426785868561102E-7 6.066863114996617 1.5426785868561102E-7
Sn 1.5426785868561102E-7 19.51864125079113 1.5426785868561102E-7
Sn 19.51864125079113 1.5426785868561102E-7 1.5426785868561102E-7
Sn 6.066863114996617 1.5426785868561102E-7 1.5426785868561102E-7
Sn 1.5426785868561102E-7 1.5426785868561102E-7 19.51864125079113
Sn 1.5426785868561102E-7 1.5426785868561102E-7 6.066863114996617
Sn 1.5890701420556295 20.951856934675632 2.5507394154889687
Sn 23.996434223732113 20.951856934675632 2.5507394154889687
Sn 1.5890701420556295 20.951856934675632 23.034764950298428
Sn 23.996434223732113 20.951856934675632 23.034764950298428
Sn 4.6336483738602725 23.034764950298428 23.996434223732113
Sn 4.6336483738602725 23.034764950298428 1.5890701420556295
Sn 20.951856934675632 23.034764950298428 23.996434223732113
Sn 20.951856934675632 23.034764950298428 1.5890701420556295
Sn 1.5890701420556295 4.6336483738602725 23.034764950298428
Sn 1.5890701420556295 4.6336483738602725 2.5507394154889687
Sn 23.996434223732113 4.6336483738602725 23.034764950298428
Sn 23.996434223732113 4.6336483738602725 2.5507394154889687
Sn 23.034764950298428 1.5890701420556295 20.951856934675632
Sn 2.5507394154889687 1.5890701420556295 20.951856934675632
Sn 23.034764950298428 23.996434223732113 20.951856934675632
Sn 2.5507394154889687 23.996434223732113 20.951856934675632
Sn 20.951856934675632 2.5507394154889687 1.5890701420556295
Sn 20.951856934675632 2.5507394154889687 23.996434223732113
Sn 23.034764950298428 23.996434223732113 4.6336483738602725
Sn 2.5507394154889687 23.996434223732113 4.6336483738602725
Sn 2.5507394154889687 1.5890701420556295 4.6336483738602725
Sn 23.034764950298428 1.5890701420556295 4.6336483738602725
Sn 4.6336483738602725 2.5507394154889687 23.996434223732113
Sn 4.6336483738602725 2.5507394154889687 1.5890701420556295
