53
Energy = -187.65319149 eV
Sn 13.417812220897343 10.212255679879142 5.561254196301435
Sn 11.26415728667322 12.406032921500557 5.897537316376539
Sn 11.026279012356156 8.456062744213572 4.841165204321514
Sn 6.7504120357926185 13.328308346901172 7.6865969549075395
Sn 8.138253825654738 9.695778881841125 4.87768293676042
Sn 8.517990864854424 6.585243896901142 4.285317699200913
Sn 12.58470890379548 15.015557318443717 6.735264532295552
Sn 12.613612369440649 8.92649082342322 8.061631516790095
Sn 9.528315242056514 15.003298256765506 7.77594273943974
Sn 10.974848319409457 5.762617695085122 6.2050631797706
Sn 5.980335774424412 10.2278736191486 7.64231119919186
Sn 10.422877170675148 9.839582183371588 9.952885353380992
Sn 6.164967656173267 7.359149812427042 6.010055533020328
Sn 14.109778649771952 12.417959198949294 7.559006333476531
Sn 9.050628101055917 11.253885324545928 7.592991309154666
Sn 9.139844109937515 8.070916141755863 7.3013583617261615
Sn 6.740049450666874 15.264085422366337 10.073379577240619
Sn 11.92875162667223 16.6214244587878 9.254576481271503
Sn 8.10587464727636 5.116368040491461 7.083544938729622
Sn 12.813741560509039 6.0072687824071265 8.77941364875075
Sn 11.616805604377566 13.297264907152206 9.387916273091731
Sn 12.646337867137525 6.118720974402979 11.875276919788783
Sn 3.935931281607518 9.189859569516386 10.071621777255263
Sn 14.469823485181736 14.835785853452627 9.597946633581149
Sn 14.875981161176256 7.8584657347564315 10.38829566257645
Sn 7.175187220177933 9.544091582005473 10.554934004177904
Sn 10.07148008319792 6.768738157458858 9.947655000965932
Sn 5.951453440843831 13.680429664761562 12.632172139079866
Sn 12.807386378404932 9.069201624529388 12.660614117567912
Sn 6.014142917174409 7.176889050942104 9.058194828869642
Sn 7.605500393248715 5.196409829362922 10.635580261374217
Sn 16.997768124315275 11.614529001677294 10.75291949090908
Sn 8.29334535095124 12.596829235662138 10.490244584491913
Sn 15.187264288775685 6.821012114320078 13.43463848124362
Sn 10.092393503434058 7.032709207900384 13.73830975087422
Sn 9.56751892721112 15.544340229292052 10.992162112976915
Sn 12.580909006380017 15.065458911535645 12.102802539490732
Sn 14.15931988048904 10.88480217676169 10.289531035106098
Sn 5.0895267093542 9.245826187539215 12.796696821331373
Sn 11.898348652229602 12.030856999905545 12.32864904857856
Sn 5.165715903033131 12.037751387146486 10.175905203751194
Sn 13.087998896418238 7.823704177665268 15.485625260015972
Sn 9.354356294244171 9.915128810516594 13.258608441226265
Sn 16.183663539289906 9.614304549685292 12.789563620933478
Sn 7.10667050754804 7.077691496119432 12.934050973155157
Sn 8.917609465129013 13.523043311673144 13.339235229406164
Sn 10.465063485892715 9.160707079867814 16.21622892224638
Sn 15.108772958749963 13.278860784694563 12.333085992328366
Sn 6.7897896423309705 11.14669522500081 14.404273662859813
Sn 13.479810655182801 13.152333696183158 14.912441984426659
Sn 14.468346640471829 10.393906315288529 15.037895974139705
Sn 10.66697464038212 12.03048683404013 15.332445635497725
Sn 7.620831466929918 8.428272969343475 15.592765803938441
