52
Energy = -184.39484637 eV
Sn 12.71779512060704 8.53905752447346 5.447309945126981
Sn 11.649761862324947 5.824351529199675 6.4934933443533875
Sn 9.820816171671607 8.4826347670303 6.8303792300719355
Sn 8.694652972973577 12.54010185541868 6.998476970526209
Sn 13.586956945745559 13.804104092372151 7.246092552075608
Sn 11.505198951100708 11.407545921936922 6.511341278318092
Sn 10.806555635474657 14.816181824129737 6.211203928383718
Sn 7.195939279916899 9.922477263203822 8.117308142025353
Sn 9.87688350056733 5.878261502816434 9.121148893182173
Sn 14.955928336044344 9.649526779444367 7.385392897730627
Sn 14.742716030635124 6.501185299186984 6.88535141076194
Sn 8.331196299321633 13.010955544000046 10.376862265023464
Sn 12.405316265429715 8.153566254083339 8.576014140306858
Sn 13.080023701331783 5.088103651820005 9.237093599654143
Sn 13.751062512959157 16.140327125642884 9.51823038678199
Sn 5.578231630205474 10.904730679343597 10.629798833468476
Sn 13.571071694649996 17.4625931426252 12.371551532896833
Sn 11.260154651910042 14.085887778153692 9.307787293884354
Sn 11.160581626862735 17.167444030534913 8.1745957068084
Sn 15.670137183855596 13.31541173684709 9.562343250782185
Sn 9.99231928792853 10.610550552857767 9.213121459772978
Sn 7.3949045833567535 7.7611721674888265 10.206929257275098
Sn 13.18740640742942 11.382777759871999 9.320366768478024
Sn 8.596738899805151 15.38738860269271 8.360852982477152
Sn 16.14092982141949 10.375588080626397 10.412050334674483
Sn 10.308678582565152 8.06154412618284 11.200308731206674
Sn 11.291190251430121 5.017727307039271 11.893128769736656
Sn 13.319811673433058 9.141275656509794 11.471919983262058
Sn 8.245326884441416 15.683647594734719 12.477605100208871
Sn 7.865668226865479 10.324684624443734 12.77898401522448
Sn 10.931938817145138 16.602114382519748 11.153626595024477
Sn 13.154069763307245 13.01693340602533 12.010053699687068
Sn 10.18679869086655 13.365064626023218 12.876561588383055
Sn 15.433438206325901 15.02342796263296 12.052443313826537
Sn 15.551206757402504 7.374038680284124 9.77359414300782
Sn 5.117789983060787 8.196806243129455 12.249801405569132
Sn 13.695765640061772 8.651873382705942 14.759582381777419
Sn 11.262307578100243 10.378956593942723 13.544242680929035
Sn 15.042048005895042 10.97538145628316 13.330216253765414
Sn 14.024278957061185 6.266930542010932 12.256746242523382
Sn 6.309320071695796 13.17711501808376 12.866051052519737
Sn 4.371823559221763 10.87525826124227 13.51987709960717
Sn 7.982735236831879 7.01925120212524 13.231510785445096
Sn 14.656692272709865 13.635320887963696 14.804083867666403
Sn 9.576760606168735 15.295160982956952 15.212299764716217
Sn 12.909890734805806 11.387498417162753 16.051492293104687
Sn 12.319359702747194 15.37104205983742 14.119038002025617
Sn 11.019399666757693 7.123718643743477 14.108135769327191
Sn 6.937252294501603 11.818756937548374 15.489628201685267
Sn 10.030288677761188 12.362831201679802 15.843316725635193
Sn 6.111506883704083 8.836973549417698 15.200902559004675
Sn 9.110801472526447 9.244169358892183 15.649181141211875
