50
Energy = -176.79864941 eV
Sn 7.185983408880609 12.752340188988448 7.577009858194904
Sn 9.41951705404609 9.659171465451644 13.906301948896848
Sn 16.524978500557005 7.614808451055095 11.66994350969021
Sn 17.202785794614112 7.7432216251296 8.603076742978205
Sn 10.187721301330454 11.535942984809944 16.343559865962547
Sn 7.289109438829433 12.539447569414047 13.02080442243729
Sn 13.224811573304393 7.4207930851925905 12.24261559336373
Sn 15.17572801740957 15.502680919561938 10.197873181812739
Sn 14.446083054112293 6.707872927579094 9.517081221454417
Sn 11.980648376565629 8.635161395439013 16.13599171759426
Sn 8.097903647445893 7.784505481440008 8.85342339778901
Sn 16.276270206394564 10.835282013276231 12.72221914134801
Sn 7.0984162096332035 15.636158285120668 12.392197864953735
Sn 15.093207812978603 13.332507428197726 7.858504472731554
Sn 11.145235520390647 8.05414663955088 7.925070024257274
Sn 10.577563115345269 7.709150692280177 10.861126774585893
Sn 9.15505602825825 13.846312639619304 10.18552933876072
Sn 7.184646205285944 10.581579699091328 15.98151054099965
Sn 18.29545402744025 9.977369997099718 10.465535008610045
Sn 8.031292932170157 15.27158907031921 6.066957632298786
Sn 8.732348445450297 14.038879063308311 15.140247261594816
Sn 6.97341715149593 15.97838205640973 8.918732799616778
Sn 6.25579017606583 9.677329080059648 13.176334576673225
Sn 13.158564080915863 11.341725341991564 15.40675626329293
Sn 14.51957935657224 13.508348847231886 12.503902234727809
Sn 9.67191909521126 16.587909789212983 13.711528476679293
Sn 14.80532877275839 8.775630572130849 14.59909813302849
Sn 7.313403659773776 10.493732322942419 9.95817163272865
Sn 8.932977878576628 10.122015965039466 7.034233134765654
Sn 9.120305677913398 8.445276606499515 17.323613525950424
Sn 10.203334275327842 13.575936226790292 7.319337580700523
Sn 9.864443797153523 6.724524162076033 14.722175567535054
Sn 12.111922174177176 15.400877252404216 11.166164843936194
Sn 12.851941934574935 15.338308440900231 8.052142994646262
Sn 17.003871191628974 12.953457858570495 10.334046614819364
Sn 12.80274834897368 6.041290245203314 14.816626945867531
Sn 14.96373453048445 9.96257927041462 10.01014210871171
Sn 10.370744650622363 10.515512112683087 9.936482670083352
Sn 10.31868863245446 12.334161960395965 12.714525231362103
Sn 9.372664926823779 16.967689606782944 10.694049647968493
Sn 16.974466976160215 10.782526147993849 7.7220270135488684
Sn 5.945692468856287 13.323096799355897 10.374390400414693
Sn 6.936696097929337 7.485406038307891 15.50891359846095
Sn 11.800133592218495 14.389668112469662 14.21849917188315
Sn 10.081719873898868 16.671952143856338 7.798064333200836
Sn 12.995998313053878 10.488436811528388 12.512134667196255
Sn 11.96517096598213 11.102381622074365 7.354120589541568
Sn 7.966122896462742 7.270509558601477 12.30200537315814
Sn 12.917599284049492 12.754201999222278 9.947977293737557
Sn 14.513059364863924 8.845012242346858 7.23402387087143
