52
Energy = -184.25946574 eV
Sn 10.985214758435871 13.199482383029922 4.758160780293782
Sn 12.266521449539626 10.198475253977932 4.967786629513308
Sn 13.648503482454878 7.49321798635052 5.926017225465913
Sn 9.232119101591843 10.514669740325195 5.018555869129114
Sn 9.088551112262463 6.046217276661371 7.286503654237327
Sn 13.94242299151117 12.715767752949185 5.741485148693316
Sn 6.217155414866858 10.539244325390197 5.982714480338878
Sn 15.069567436076369 10.012961930426485 6.650676075621288
Sn 7.992136350119012 13.279851672333953 6.0053574268821475
Sn 10.438458102389628 14.7794797866855 7.323113496455952
Sn 11.353599760297035 11.7396561149914 7.6002198393479805
Sn 5.398365372806163 9.889262775502477 8.866491798560546
Sn 11.411155405233059 8.349283294966275 7.777135068779715
Sn 11.3678905152103 5.085516631340452 9.082759363878093
Sn 17.025957830159292 10.932468565327447 8.687912854193009
Sn 8.37411826247471 9.364537861342361 7.886559182699005
Sn 14.168332040364659 6.51734297207006 8.764268364481342
Sn 14.288853310214307 12.372938375845623 8.721928224041227
Sn 13.666670556869095 9.460592490626047 9.56807020501474
Sn 5.322515061756897 12.92925208047417 7.653223142323546
Sn 6.639104945592171 6.932997715231506 8.972355810214284
Sn 16.57195591386209 8.130399396271647 9.765255491882208
Sn 7.573035176784416 14.881541278491106 8.629684068107744
Sn 6.698267437200992 12.43111476166224 10.322258707682707
Sn 10.87084053134289 15.628535526571998 12.729663593740375
Sn 9.232561773364218 10.970312961364696 10.249312387767462
Sn 5.0446420377059775 13.286918545627119 12.636716764784468
Sn 9.645106585520983 7.342183104418468 10.379938233564214
Sn 16.285323996054203 7.395972559430399 12.722608296197466
Sn 8.373218567773895 4.387331841155201 9.909917753403352
Sn 7.663584250740433 15.06703250967856 12.510458528039397
Sn 7.918994267738911 9.533049797433126 12.457138830995879
Sn 5.106416891002454 8.717222806534199 11.687028021133358
Sn 11.599775528540933 7.989486999845684 12.676522863124198
Sn 15.860469003837206 10.36497772334443 11.7522318042433
Sn 10.827390432546679 4.776893616730296 12.060095202504167
Sn 5.501956828130388 10.66744005731486 14.043146692282335
Sn 10.223955253912465 13.881130272774227 10.243959775438391
Sn 13.180479387139172 13.639025392235244 11.272547959660766
Sn 9.405356512533757 12.679441758298282 13.39499150445989
Sn 12.040124381603311 10.863408293197027 11.787612792785195
Sn 13.669092056463773 6.063529484449295 11.737452594264024
Sn 6.785810547259778 13.549047979534723 15.166758415739181
Sn 9.163414119249534 7.219250586163951 14.137414391971392
Sn 7.061779111851761 6.3760794677480295 12.0501616538716
Sn 14.096393185891436 9.023836731168627 13.976674197334967
Sn 8.20232795287328 10.07595897019086 15.389196921815063
Sn 9.11656759780444 15.611619916116522 15.29336375520032
Sn 11.821276944847945 13.908775353895079 15.101488819264631
Sn 14.271348584156158 12.207427610339098 13.741645339193395
Sn 9.404176056968792 12.776124433456175 16.66338310327179
Sn 11.485354998481071 10.799922452119498 14.868286069520217
