52
Energy = -184.05957799 eV
Sn 13.080354031215537 10.231611219158246 5.615454740576568
Sn 9.555442281784634 14.271703370030197 6.546978437023819
Sn 12.432332074026888 12.867730490252388 6.782293882921275
Sn 8.741499513637068 11.30584823561587 6.822174407803398
Sn 11.532036760060937 15.69427517864998 8.623776921401225
Sn 15.020656955375689 10.175796975792725 7.795448711899631
Sn 8.07149103632926 15.927089486252827 8.752170095801288
Sn 9.785500638962281 8.321188136482364 7.823102973155122
Sn 6.526761732639006 13.738115638409852 7.123732528720621
Sn 14.511885910384242 14.805235806838638 8.013869347082395
Sn 12.776925806102973 7.767674069111802 7.394887933046469
Sn 10.88189548795677 17.253166904487184 11.089349611235866
Sn 9.042260249288422 12.902936729030714 9.40881052499144
Sn 11.844189090403793 10.501803315602714 8.636806621427443
Sn 10.70554492126903 5.515716583492739 9.03208058544541
Sn 6.400722520788246 11.187337393325768 8.853422859676526
Sn 15.265117880173166 7.45799623046286 9.349955995474371
Sn 13.946902073845154 16.365915534628463 10.642270881388894
Sn 17.13945557224035 11.631153767121939 9.46051783997873
Sn 8.183113877833112 5.427100994422599 10.93374141335882
Sn 6.1372721150704725 13.945496019587498 10.172909601332208
Sn 13.174580374594855 5.584844579287038 10.916117774693943
Sn 10.571198545417628 7.911362184128622 10.902301618449897
Sn 16.483949246107528 14.564620888264555 10.403769748462748
Sn 14.067554662424511 12.36184870163777 9.913262365289295
Sn 7.534477157806072 8.09384798809955 9.763566576494354
Sn 10.633664064843769 5.167924747926485 12.670152164918257
Sn 11.643264546870668 14.078302091569107 11.313759682889767
Sn 8.470823544565574 7.641965790991175 13.079733721036492
Sn 9.768549620625548 10.857757635525443 12.218795744144057
Sn 13.545369603302237 8.817300936947376 11.596079239696518
Sn 8.714772455643013 15.19747649573174 11.90838549774242
Sn 16.14596442898509 12.264448289071916 12.348738835907783
Sn 6.774380303885202 10.185538363738956 11.85990478204746
Sn 15.733362550103337 6.3361294761041025 12.375000558086715
Sn 13.094501126027454 11.691195932740806 13.111424996929912
Sn 13.0479790468202 6.6963773694891895 13.92636099855201
Sn 11.135312960144732 9.215765550998997 14.477098426794234
Sn 13.966418468164072 14.986013208665682 13.339308957798902
Sn 7.079348147167875 12.945551619642004 13.286451206081926
Sn 16.701623515470526 9.269829700585598 11.516996073504131
Sn 11.188228150873787 15.993242392349039 14.19389998089005
Sn 10.081331984570316 13.089608068318753 14.40285684216408
Sn 8.329530736450526 10.205027443925436 15.15598971705457
Sn 15.114190132972334 12.932254213571676 15.299862664955127
Sn 15.289295376254142 8.870072383172053 14.219751592751873
Sn 8.248392636926486 15.68194287403563 15.018132559769086
Sn 13.400757740630711 10.549474653860775 16.076005516037092
Sn 12.434094347252977 13.982246133909353 16.34606366893864
Sn 7.590288538166311 12.903896725694013 16.491424448066766
Sn 9.776722756740531 14.762723299576786 17.580180331516228
Sn 10.435368695416749 11.623174176294508 17.17152378920612
