55
Energy = -195.18309578 eV
Sn 8.438171119609795 11.946335905288507 9.466864783530264
Sn 18.25986038302246 13.874388537914196 12.796068815166205
Sn 15.449399708979753 10.820863201279172 14.638626671824388
Sn 11.482993059330875 7.152020135766276 11.79541379742001
Sn 15.531785900874253 14.047933789319126 14.201769730053295
Sn 11.721180697686952 10.596691470100327 18.187787307663452
Sn 13.357237092960961 13.60446698062967 9.996379914817165
Sn 12.968673218050416 15.663025438331635 18.96570591012609
Sn 16.41544897466904 8.434194128262437 12.130756186983405
Sn 9.965472916918097 12.267030170060204 12.255111179071497
Sn 11.282693183383838 11.780269616810049 9.010615721939885
Sn 11.771680921181016 10.739106427639353 15.054340459008097
Sn 7.133258670956344 15.525712685065024 15.399302175139454
Sn 7.330417623785322 13.572035336611561 13.055981443100267
Sn 9.175104415198756 11.398315453971383 16.564886291053583
Sn 13.729914377250047 18.380670615291955 10.281228660184624
Sn 10.818145359223262 18.201167984309734 9.805443086107788
Sn 17.856509278713276 15.957211405952837 10.463030966031443
Sn 10.719980106561502 18.29591689621839 12.857690524056682
Sn 14.083730722890301 7.201008026342979 13.537684860908044
Sn 15.041339407678993 16.03511108285013 11.800795004951622
Sn 13.679908503546658 8.708816818422179 16.414259829056153
Sn 11.211126622202405 7.647869915741356 14.855091003843949
Sn 12.203661152012971 15.434359141353848 14.0006224184616
Sn 18.53042356515324 10.808753423118231 13.862175573604523
Sn 16.4440297510044 11.60061610386283 11.721067415415988
Sn 9.74785307564007 17.018660682913605 15.5947257780845
Sn 13.416485943960986 13.30412156421132 16.692539267991013
Sn 13.036226414298145 12.521405128653829 12.85933777148927
Sn 15.138855008863102 11.14498710007807 18.08760452889803
Sn 10.777879494444077 13.760686635238862 18.11969292293733
Sn 9.738977076246508 13.977827434486949 15.078898427656839
Sn 20.0576698127231 13.281010368787992 15.07407724621095
Sn 17.505047649525846 17.568046494692837 13.018521536746306
Sn 16.698902028952194 18.956260489193713 10.290902028361849
Sn 15.6834624496568 14.19259670452138 18.818679262000373
Sn 14.938849250279606 16.090002949862498 16.385646329595964
Sn 14.829705410114588 18.91296081263066 13.008905129675275
Sn 12.425049028313513 15.989652221434598 8.383691185685105
Sn 13.423570403007671 9.661740979010093 11.736533610884589
Sn 12.652790527404203 18.091079063398723 15.280059788435787
Sn 12.338381525874487 8.71236549234774 8.889433432830682
Sn 9.105452762863477 9.645531892949787 13.96659833026339
Sn 17.36517725014502 12.562229849216779 16.29025237801085
Sn 15.440361814610384 9.34924228059844 9.330279439540746
Sn 15.511169934018413 16.51700633206932 8.604144978337484
Sn 13.182227509363106 12.788188337679802 20.02025129823835
Sn 13.761030130833365 11.106882542143078 7.449640211557704
Sn 11.054605043436082 15.525643610180701 11.25758122422363
Sn 17.982822847884922 15.618327599172504 15.53174082575452
Sn 15.962627998423486 12.679919256086087 8.914434787790354
Sn 7.966498015608697 16.84536591695011 12.806092408034514
Sn 9.545183625611978 9.45295479959487 10.872178695929016
Sn 14.233674224585641 6.618896748885413 10.45226100840141
Sn 8.306941122775424 14.842140134806737 10.496220549226097
