51
Energy = -181.26664258 eV
Sn 9.264810494626033 9.813418996746307 5.703553606784569
Sn 10.48365810111873 7.026725672380554 5.46980941730812
Sn 12.971230539358297 12.802146953509535 6.398426364848933
Sn 13.084522587577458 8.189411143024165 6.616359620990425
Sn 6.652168002814179 10.670739673463402 7.125957669186667
Sn 7.567241054480518 7.357925347923934 6.785082040431068
Sn 15.286281529554453 10.799057321796575 6.608508079152301
Sn 13.597302085146437 15.71115704421395 7.185600313210065
Sn 7.356977301042735 13.501228449033455 8.454105058311905
Sn 5.770172189919404 8.437845923904835 9.098893697626826
Sn 10.176748153797153 11.996646597268922 7.5430359296377665
Sn 15.832103039170892 13.671309864604 7.930527449199952
Sn 10.133922574928755 8.487678219622259 8.38122251971441
Sn 12.296688194036735 6.132318375514982 8.921006768607393
Sn 9.617178062406236 5.165016716332398 7.859955516612752
Sn 12.66257740225635 10.440789110517567 8.55696782309352
Sn 15.24526694150847 6.620576800934153 8.260035093304023
Sn 4.9164490621973 12.622567095223026 10.006057805691071
Sn 7.442519654421586 10.813381664194763 10.090441618047516
Sn 8.171818709089441 6.775335292187085 9.985480351895
Sn 15.273419574504327 16.195725856649123 9.716275673703006
Sn 12.061309053268108 16.502848194547383 9.80962308411075
Sn 15.460451897324555 9.625885533614627 9.31276619306593
Sn 13.038449565410293 13.551497418527328 9.521116679261235
Sn 6.402804535501854 15.129546308814817 11.441909608991068
Sn 13.52928632174826 15.143246995892156 12.16029793951589
Sn 9.584338161825343 14.631219400782705 10.318140482186623
Sn 13.202484952760793 10.579620560100958 11.761930645581904
Sn 15.768365752372826 13.377131828741732 10.965568701612863
Sn 16.256448646901074 10.307977770838049 12.070433920471327
Sn 14.326151049564928 5.369037962225609 11.237733636011333
Sn 4.827974006072144 13.03318676453431 13.284300827006048
Sn 7.890838908943504 12.754475733923323 12.896934885807429
Sn 9.03387942442942 15.992549449401592 13.033558337220635
Sn 12.228086625133892 7.732332651126759 11.441063520615756
Sn 12.522722856919188 5.722743049090498 13.890548714667451
Sn 16.692970478222165 7.245996051720223 10.91122194895919
Sn 5.0540196460303815 10.077814313149318 11.681759575044635
Sn 9.768587166577687 6.695438041145328 12.774050213774208
Sn 8.667321841842865 7.511526888087497 15.527858350914991
Sn 10.282899369285717 11.543307113045666 10.665946961628325
Sn 11.075116598595125 13.448245052095002 13.057157106576609
Sn 6.513459403046177 15.357079921838025 14.60850646185415
Sn 14.708059865375612 7.847425614363271 13.263791258937395
Sn 6.598358237367546 12.392093330689418 15.865440892331959
Sn 9.281183898989422 13.952857686894994 15.468231067491374
Sn 11.590901650673203 8.091025970854117 15.474871136177752
Sn 11.909291505295812 11.042657761333654 14.956769225659187
Sn 6.878179929806775 9.758205779846314 14.23758100091151
Sn 9.751569868532659 9.738752260511413 13.304408398784119
Sn 9.255722008900964 10.57756095389004 16.32346528814344
