54
Energy = -191.25078182 eV
Sn 11.577523981262031 12.536400227896968 5.4728047987929545
Sn 14.183600090320814 10.834475031185027 5.363242517604657
Sn 12.177657363685777 15.656666608653577 6.5084352522852384
Sn 9.04766902419549 14.175603999467896 6.607314763217799
Sn 11.560796296416179 9.23293457100117 5.883484972310263
Sn 13.982958505415331 13.341276711304848 7.404823339464275
Sn 9.245936802071276 11.091808891521268 6.947959466569686
Sn 14.264749005158079 8.465104874635294 7.371818155854332
Sn 11.398747723747869 6.612760343781761 7.623948963602319
Sn 16.02275226686868 11.119171801665296 7.903788445369097
Sn 11.201565291511463 12.970953711632475 8.682243200297014
Sn 9.092965188775686 8.372393986554137 8.515911881152576
Sn 10.248500168959877 15.91165253046616 8.878393474392702
Sn 13.417503218943175 16.302970884078135 9.296839825247162
Sn 11.87884488299105 9.561196129844392 9.058234547381302
Sn 7.536659551415548 13.467012058747578 9.239528494540318
Sn 13.939102469024947 11.611565343791353 10.326493185351525
Sn 12.777878336347987 6.974308268552677 10.34905296839174
Sn 10.86293333567953 8.521040285728525 12.337314111893477
Sn 15.609014360367045 9.064498156507161 10.520297237258124
Sn 9.460915556245896 11.064806234918711 10.555403288754283
Sn 6.404385520091202 10.745015293500428 10.293955153059414
Sn 10.039442308140886 5.6991924333086015 10.933314762927623
Sn 11.30087334939485 16.443579688889177 11.658123866834046
Sn 7.034612011285105 16.077715663519356 10.84913858081772
Sn 15.813882705004321 14.075781718195508 9.92928958492069
Sn 17.600816350411122 11.515627083497625 10.951637838156048
Sn 15.080283803211294 6.538196908299133 12.123761594767112
Sn 5.055577291658354 13.524681796521296 11.089016882937576
Sn 7.9599572300261485 7.931135763095315 11.401910116205633
Sn 6.923190453090983 11.86749201987652 13.018852662521276
Sn 14.247395095332378 15.68721366136298 12.342641692915633
Sn 8.897686982526354 5.92722315266388 13.79937363548249
Sn 15.697841101243737 13.046782476328607 12.950536050073032
Sn 13.537323513023376 10.756321154035003 13.28879519905941
Sn 9.033392082804733 13.923657247031187 12.015904677148333
Sn 18.375135297156284 12.113149390849335 13.9282760858406
Sn 12.07342681502159 13.483948198123901 12.053671301620232
Sn 17.226043312686233 9.449008011475787 13.282163588125226
Sn 12.069374437699585 5.683041122799716 13.33683400659206
Sn 8.586674690154219 16.572971761602417 13.52887604598711
Sn 5.890682330608119 14.885939200187634 13.587174603946126
Sn 10.182564122172115 11.327063082306859 14.364255090924855
Sn 8.09239739646735 8.944816831311877 14.370604871853946
Sn 10.167029027013925 14.387315758938472 15.134393668596028
Sn 7.546955501410567 12.422696102570276 15.900833502191517
Sn 10.911212799204266 7.689841022390574 15.332313502992703
Sn 15.873265582060279 11.147076515705141 15.571776336741419
Sn 13.205355543498099 13.426244473149627 15.028531279312574
Sn 14.739541038511346 8.367032238254613 14.61275016461929
Sn 7.332513675981488 15.367263983690222 16.177615748265854
Sn 10.720141146352974 12.348104337161548 17.426455642876984
Sn 12.502530253871848 10.269224601912226 16.26920926516484
Sn 8.898421147305703 9.975243989333668 17.10887744061502
