50
Energy = -177.74356519 eV
Sn 12.28123212114436 7.83149090056309 5.13343893486299
Sn 7.063134459588145 8.218318161513277 4.312704797386397
Sn 9.423497716818881 8.161005619513642 6.299410502800357
Sn 13.440599599503848 5.449860706629134 6.850167539913742
Sn 15.298510479485133 7.630171379377914 5.7048100226202445
Sn 11.605265454325993 11.625423672425853 7.072357854455347
Sn 14.038283577294234 10.478484972947738 5.536968246759783
Sn 7.2621157474218965 5.874261194815516 6.545470826363588
Sn 8.500245844346852 10.855533280531223 5.338667521444542
Sn 10.493014404762594 14.385763732911913 6.340490406834359
Sn 12.991519073370027 8.551935255845773 8.03341168457663
Sn 7.095398068666469 8.145614964649065 8.556056309746207
Sn 12.937294541733387 14.650833792647374 8.315072988127945
Sn 15.659491179293472 7.004146456999197 8.784776888361614
Sn 4.747755309935458 7.5842132880153805 6.423125258088326
Sn 9.611856422642889 10.101856045550802 8.736648161558922
Sn 5.5370271552408115 10.525685014176021 5.599566944112816
Sn 7.877080914541072 14.7627219666466 7.96925144236729
Sn 10.357298135311485 5.506343115609473 7.60470472802197
Sn 15.900800233468079 9.900423294582984 7.930609683042898
Sn 10.270838004290376 13.463160731347287 9.400823918239613
Sn 13.763851103379565 11.618177209720962 9.22091443933839
Sn 7.7218789388237825 5.545694396174902 9.920817203492334
Sn 10.439752423501078 16.621855239528795 8.46628651740375
Sn 7.147673497724895 11.629720864558527 8.16709519678501
Sn 7.5313500246793454 12.667117240831123 11.260976130859921
Sn 6.752993138861954 9.57414691749024 12.127745080379677
Sn 13.227499175301965 9.39086409447354 11.400707014974945
Sn 11.802293581993004 15.506670348374309 11.095245998383643
Sn 4.729686838823414 6.955642188989912 10.151012077311345
Sn 10.269806788688179 7.420505468774272 9.941061512109293
Sn 12.80375626024721 12.578228417646356 12.160930747898155
Sn 8.674441793291498 15.680416757618048 10.905496071938373
Sn 4.612601212314231 9.866983688236369 8.567490136042217
Sn 12.870758297173658 5.875273968319243 9.999013581432362
Sn 10.21211989403741 11.215563229920967 11.720168749109057
Sn 7.9724231333997695 6.77593459509508 12.823585767026467
Sn 3.7566381136079574 9.528851986036289 11.704408090423858
Sn 14.256739132197922 10.558168620242792 14.086644093699539
Sn 4.914688301446257 7.189363743935944 13.32412585593363
Sn 10.539955107541731 8.376753565966462 12.870374874933677
Sn 9.438576341652684 13.619214367625645 13.60924235991619
Sn 15.01572802137795 7.022983492762289 11.806624900688465
Sn 12.07105603430835 12.576806581149217 15.164986400480558
Sn 6.994994539164518 11.790265636966843 14.400968036127216
Sn 13.049926900176017 7.646399671290418 14.176627164967867
Sn 4.535828912624257 9.903130291420716 14.66583085069657
Sn 7.208264271535402 8.541006107819735 15.23371092332496
Sn 12.207386093126507 9.736125233301944 16.26122622798443
Sn 9.681973037060843 10.477787879675853 14.875048687900232
