5
Energy = -14.19199657 eV
Sn 7.798912890345891 10.83440697365626 13.671213248651627
Sn 12.385833511113725 9.989204625963426 10.96856369458648
Sn 9.765454688935561 10.866157117753055 11.730445410096067
Sn 12.923673312494547 10.342262917195072 8.194698612560344
Sn 10.397377435244064 11.356024441970826 8.987241172000758
