54
Energy = -191.32912416 eV
Sn 8.822015743274175 3.795530335293272 10.373030987142617
Sn 7.917976651604793 14.435198869310154 14.07313368262497
Sn 8.05145083835617 8.741785002276274 12.228872294361974
Sn 5.0895954549501825 10.46829728566943 12.377126604665547
Sn 13.826553353993186 14.798083854755651 10.21445506222995
Sn 10.975365880307745 7.006412161304568 12.391025870620622
Sn 13.394370375176896 5.246278407335421 13.186709798405479
Sn 4.234438497499159 12.992565497567604 10.94915018975165
Sn 13.604656552182771 6.601292978682993 10.380360488450812
Sn 14.528318375729594 12.540845107483268 7.922370551083023
Sn 14.46966377381969 15.580574242428309 7.4167460368394265
Sn 7.330131129985787 12.410773662489175 11.51306549618758
Sn 10.717412276832249 15.06394332612434 12.84325516152568
Sn 10.084422255272257 8.943110929088899 14.80053273191986
Sn 9.219501750351442 5.232479374770136 7.016167484117033
Sn 4.180703455629099 10.841902745773101 7.288339755026696
Sn 7.40787498643846 11.300798685965333 14.447245225473438
Sn 10.547648640663706 3.965040884027489 13.116703206667976
Sn 12.727280499369776 13.748562804956654 5.7943393138675505
Sn 12.058659693559083 9.593236531811309 5.1721065801172115
Sn 10.067024027696085 10.088721440192632 10.13533005618133
Sn 5.840813669102184 12.677808864429622 5.278791305924905
Sn 7.788296930916517 14.359943304919714 7.1966739494502034
Sn 6.532950025140478 9.659037261805098 5.674563021207452
Sn 11.41488317690032 14.988136150165785 8.203164192626602
Sn 8.551553539125706 6.232233811897599 14.217644332659441
Sn 9.182933535950601 8.738425723614338 7.18700409468795
Sn 14.832571138741619 11.770049772214998 10.805524165195663
Sn 6.66944967263674 6.849974074382461 7.976648797017722
Sn 14.577723398164192 9.233729105761022 6.949905309934531
Sn 11.300003099988286 5.921997601529477 15.572399130126204
Sn 7.361647228533 3.7712287338012835 12.968486460992125
Sn 6.04785307415832 15.33830191796787 11.783957697689752
Sn 12.089291828585454 7.446004599398109 7.535892858911781
Sn 14.934713922697767 6.084340709618767 7.50433179671851
Sn 4.88972534937674 13.789836289554673 7.978512558160131
Sn 10.37631616924431 12.38513435782297 14.385588323186509
Sn 12.231173073964815 10.65853648171562 12.678527915237895
Sn 7.24410341905569 11.607744985602897 8.1460210377312
Sn 8.854909824317957 11.905288177121506 5.555005986019901
Sn 13.784392907373936 7.012956998688562 4.787573419322556
Sn 6.713627144895769 6.1435219028746015 11.037961953573506
Sn 5.8247271383927 9.388846482205587 9.46725706455963
Sn 10.669566376833298 6.7996432710350465 4.704106983339357
Sn 13.057416949491927 8.101464249454434 14.31103278107576
Sn 11.46442679756536 4.682785178768235 9.370774504744515
Sn 13.021127094862068 9.491705898731302 9.897323224044975
Sn 12.427248701614326 4.566709072922377 6.292022377592277
Sn 11.421408602646261 11.611773120491836 7.548949279959372
Sn 9.327999933115493 6.905856226160112 9.734390885588418
Sn 13.457116401191922 13.610200096638156 12.962750783235816
Sn 11.274856138046143 12.994176554317205 10.607226425956531
Sn 8.773552204956323 14.875234594870841 10.348293994324596
Sn 5.070966454968532 13.266349437458674 13.956035947190083
