52
Energy = -184.6199506 eV
Sn 14.70950349635603 7.957216488756402 15.108615212115495
Sn 13.806415263268235 16.74638716927283 12.022956880216116
Sn 7.74990140736383 7.369848014566888 10.171192747129643
Sn 8.377270130554672 13.808192652611982 14.141627501314973
Sn 5.597467167866216 8.273957324292482 12.223243102447038
Sn 14.391129781373852 10.852045370169407 16.221447396217588
Sn 12.337835683409375 9.562552778577519 7.102998684785743
Sn 8.691539262071274 9.104806501260217 12.48004144293107
Sn 14.197086940721393 12.4214589149716 5.9690258831163865
Sn 6.05329185694845 11.137485774489642 6.886538785285504
Sn 6.395765161923482 11.247273324963492 12.879533160543833
Sn 6.584306875842517 11.922709326609878 15.878636902449134
Sn 12.111136179457057 10.79733819374317 11.117693224275586
Sn 11.291746925493012 11.76415085885011 5.066432876966377
Sn 12.208956980992738 12.426986877111847 14.342315039193467
Sn 9.377009891052042 10.876679843751173 15.1654578617916
Sn 7.221923390310559 12.6278080160669 9.652238258125426
Sn 14.944189965020012 11.537316113224788 8.87715275187303
Sn 15.238169560647902 13.27594500013073 14.451135847431434
Sn 11.047520379694829 8.419922112875499 4.373099372124713
Sn 8.54238422804879 9.919685522627937 5.541758802934673
Sn 9.768962997545003 15.014071474683853 9.480042889093172
Sn 13.670481877511737 10.001286909582543 4.049423740668928
Sn 14.252344655434037 8.699633570916532 9.905596667543909
Sn 14.70246191464999 6.8220259746995 12.290967411406118
Sn 6.85552628049263 8.090175332295697 7.253432952005339
Sn 13.194998785232427 15.5574394413755 15.020221014198922
Sn 11.977521794471855 8.608769242193997 16.460620830049894
Sn 11.459625659006898 11.561834883986808 17.414452562766822
Sn 8.873821381124142 10.192098912415009 8.629073367013246
Sn 9.572268610229797 7.556495991579223 14.905759000786654
Sn 11.356289617496278 14.727209152647548 12.110500364254877
Sn 11.255707181646464 17.59416475709402 10.387709890779144
Sn 15.432561643353997 9.516606751421941 6.609039260821039
Sn 9.377280690047417 12.00108580179259 11.98537981147362
Sn 14.173224378510964 13.12523024523502 11.467422758137708
Sn 6.786530641995122 8.976939336565177 15.109997567028262
Sn 8.720215695880004 16.3208013156938 12.138430633465436
Sn 11.97550681060971 5.833780599562578 11.5292684908484
Sn 5.816692401430875 9.902693878268101 9.62961720240595
Sn 12.949992411205523 15.256228255287962 9.420575657093302
Sn 11.824064741149646 12.412562170602019 8.219196091302482
Sn 14.890731376083316 10.142155619907067 12.924921588085335
Sn 11.033277489760001 8.065786930006425 9.758315046639282
Sn 8.733248609507047 12.874667438416411 6.926196627699829
Sn 11.148182252860433 17.544689303522958 13.491314715044325
Sn 10.768961517252142 6.815775457287164 6.978994165844772
Sn 13.370492677020621 6.142352903198851 8.719339249817505
Sn 13.651873411097135 13.652576127220817 17.32331042732504
Sn 13.720703308323923 7.1055442123618935 5.7023631023671095
Sn 10.627918855412377 14.339432107942805 16.201136635451963
Sn 12.146602747638635 8.45874266570886 13.246861487706166
