5
Energy = -11.59787702 eV
Sn 10.478483692590384 9.898752153356565 12.856302326028215
Sn 8.29160283543002 9.433415901787745 11.097315753904374
Sn 9.232652964029276 12.092095819074656 11.457448636268273
Sn 15.513285071850218 15.166653264560608 12.693978516434521
Sn 16.067546896036813 12.688612326171427 11.480909708683372
