53
Energy = -187.60300301 eV
Sn 16.856962854380452 12.41984106778763 8.494732390893923
Sn 16.26806946275549 8.936800262707955 11.840636573713248
Sn 17.722910738227537 9.597903323370142 14.727163896404042
Sn 17.162899021053608 13.563816600289119 11.312372124956749
Sn 15.817396046021697 11.534599712249937 13.149945248013
Sn 15.837974263932773 8.421274338711896 16.90830513794204
Sn 14.778931164846997 10.243065853328453 8.714290115442314
Sn 16.13085041005084 7.0218432089630705 14.16284383604891
Sn 16.20588231493761 15.484643239243516 13.599707404410049
Sn 14.446358564610097 14.06291157170161 7.433679603607232
Sn 14.321049389374398 11.425828617726097 5.896560026144746
Sn 14.284470858563193 12.733417729904708 10.444023384819177
Sn 14.79641906020412 17.667957260695875 11.993209938852239
Sn 13.657794052926386 7.848763884298176 10.07926180639112
Sn 15.677419214589941 11.429950572516574 16.234404111365702
Sn 13.5216535062143 8.543646623045014 13.166846548818016
Sn 15.632047499896489 15.66145036108287 9.649943669407572
Sn 13.249437675985313 15.061184760368334 12.935160000811027
Sn 14.247217161864228 14.395568651701215 15.811392474686361
Sn 11.881518480146813 9.979986610782529 7.335755700797567
Sn 13.393965530233013 6.763044525480924 15.62159508761385
Sn 11.629656013140094 11.022828176232846 4.527593478505956
Sn 11.664018636097365 10.005791530817318 11.0998411315108
Sn 12.055039743197874 13.833700536084171 5.657725332255193
Sn 11.273071250971741 12.4255446499976 9.14203034286104
Sn 14.330746431214344 17.638042229562394 15.18252641742022
Sn 10.616264125565612 7.83564078402375 9.193790458241134
Sn 13.114748780098095 9.698126068902827 16.114712731866227
Sn 13.532334802022861 20.035664196597295 13.299071338573878
Sn 9.968281023988526 14.821765852480906 7.7753677072117116
Sn 12.433220562495071 15.306930935208767 9.830636961230654
Sn 11.578501368590665 19.07572274299817 15.385077438539607
Sn 11.939593554758906 12.47182305300902 16.79479570608387
Sn 10.125069362080605 7.349973803132538 12.276298064715936
Sn 9.455496742344119 12.067694438498332 6.456400492914642
Sn 11.5042720706187 16.042567291518417 15.387021572875957
Sn 12.879192501721327 11.813119652535159 13.89148074046658
Sn 11.64854824166975 17.70151094218778 12.625717765014787
Sn 10.24796158454753 13.566463916154516 12.567794297035928
Sn 9.737637955581702 10.362438755668792 13.554313466379229
Sn 10.148536542557052 7.747046240509788 15.314219132144014
Sn 8.681458144611499 10.28838901645089 8.963974631341154
Sn 8.343878798797219 13.116057174217831 10.057653235231115
Sn 7.531062474971023 7.812316637306942 10.471600556599336
Sn 8.6903186552954 16.113057142009545 13.992433925633588
Sn 9.444311872332907 10.462231496614017 16.72787152486594
Sn 9.507086533474014 16.16182581137647 11.105257408681197
Sn 7.374226016041754 7.97422847680952 13.563200856980501
Sn 9.063849060435507 13.280149557712631 15.459332614076992
Sn 7.069034570238622 10.584768520479477 11.830570809800125
Sn 7.073796880888358 13.567278752300153 12.938866970486892
Sn 6.7559758991136984 11.03577111568368 15.02495035392248
Sn 7.298128190825833 8.38139866230504 16.556925166589473
