53
Energy = -187.97927998 eV
Sn 7.370085989932916 16.413377433940994 10.326347558947544
Sn 10.68685174232694 11.60404776861141 14.86685728162168
Sn 14.980881002630742 7.213284827718691 7.984469786753735
Sn 12.869578342383129 14.329001530926133 13.897318342497588
Sn 9.905227705012832 12.694289360953793 18.011371539004227
Sn 6.197056800575462 11.658524699947025 13.158771868896082
Sn 11.22758493652243 9.467720649417421 12.279662403075662
Sn 12.731032924729648 6.927446476673197 14.022968606861228
Sn 16.04658077866727 7.2310213386765385 14.100856972982777
Sn 5.965082447073089 15.347283359475233 7.768893238117479
Sn 10.818767207550925 6.592021712428407 11.301095060441076
Sn 14.936687099161995 11.390279704491665 16.052415694531447
Sn 11.73400560812939 10.207432120990788 17.47721221797078
Sn 8.078660376380395 8.033886272738512 10.60559253152307
Sn 16.671012742434563 8.857227667756092 10.121924219649172
Sn 10.001697904549202 14.848210463975457 15.542294762982177
Sn 10.324213764379818 14.064700473378492 12.300188737288904
Sn 8.79555908108049 11.489820866593375 11.348176142594596
Sn 14.832813132133246 13.279652090454157 7.266278998612817
Sn 12.111391166782251 15.659065329544434 7.691649810930679
Sn 10.335557399735135 9.975149915157449 9.002037860696273
Sn 7.784043927806569 12.734690303450456 15.666181842669262
Sn 12.829768434576502 12.236782244331282 11.445887229482661
Sn 12.475150411337683 5.7280768949170655 8.967006654376954
Sn 17.16037170036226 9.348382949179861 16.096039649641245
Sn 5.909633590479525 13.712467452196151 10.57503423334182
Sn 12.637768734357383 13.270637571762629 16.796783415463835
Sn 10.33083369270272 8.165675188458762 15.458720096672769
Sn 10.015819663079675 10.804312608666798 5.928341383831892
Sn 5.322890465757257 12.328072541160655 7.830545106640918
Sn 10.961831631286321 13.82420802126245 5.497099585125662
Sn 7.904331200601316 13.317887930402796 6.2029006101596496
Sn 8.498894881522208 10.119897954131643 16.98795952807877
Sn 14.292266838057973 8.300425523424673 16.485842025455472
Sn 13.553576308424983 9.667425160704772 9.724336050685867
Sn 9.762321960659179 7.040076893539538 8.29332490583078
Sn 13.075045017383877 11.424127711033243 5.595161645087071
Sn 14.180136838683964 7.10705452173031 11.160940895399959
Sn 8.759823183960366 13.69236474133224 9.109501120087598
Sn 15.425509946719023 12.512719356774685 13.143311397642101
Sn 15.438006278321025 10.165554499344305 7.257791678977905
Sn 7.52446956799523 10.121374983807344 7.46313311627426
Sn 14.064356365916826 9.73717957404492 13.682632819173293
Sn 12.284990009360191 8.509511417397313 6.852634697970622
Sn 10.448981453115879 16.195864041008818 10.192035946192489
Sn 17.094010868857787 9.888329470565921 13.071352122768731
Sn 11.905853139831462 12.677110370209014 8.291653291252134
Sn 7.527394561229922 14.644813079607314 13.24203294444063
Sn 14.060624414548322 14.557133074689864 9.878855323556863
Sn 8.25363504524869 9.288348325071063 13.493338002994117
Sn 15.947985402021647 11.848053321461775 9.90972790973329
Sn 6.061966718818011 10.475700854701653 10.184871723197881
Sn 8.9169313636449 16.30184912462272 7.418191180655239
