5
Energy = -15.18272274 eV
Sn 9.960314258352847 7.7665225823591415 8.489093312894079
Sn 7.589264294809288 6.228459380600163 8.551701323186817
Sn 8.409339557829787 7.996666060630799 5.963977091763343
Sn 7.587726038641461 9.457798537296762 9.011058284888524
Sn 5.744082254996637 7.939018368982659 7.26902593779941
