52
Energy = -184.49585901 eV
Sn 12.451766050266697 12.349990655350448 5.832791426877881
Sn 14.782404542687923 11.014617212095596 7.6605475948936474
Sn 10.737764016184428 14.52854782623498 7.291621242541541
Sn 8.504256481596837 10.193515743989119 6.664688175128544
Sn 14.809873190806012 14.035494958392801 6.997740049342581
Sn 8.30885321264338 12.897272393265226 8.199250387796821
Sn 11.461245052324886 9.600183153002124 6.543161345842653
Sn 11.507951319098156 6.746679149307749 7.932640537094489
Sn 17.172276069026662 12.431102507649078 9.190233777192292
Sn 16.484359424943523 15.635461366656111 9.04361075576067
Sn 8.163176726349212 7.415247143852574 7.832858752826588
Sn 13.375593946884628 15.999441698946397 8.997729821897687
Sn 11.508517090661217 11.975930197451778 8.792759504165653
Sn 6.637639045547603 10.070482203363957 9.122199577487047
Sn 14.178796681875669 13.177533621357608 10.007970016138014
Sn 16.429876470325947 14.148277067309067 11.85464687905965
Sn 10.031323364152948 15.480912913463198 10.08662103033108
Sn 9.780666570807199 9.580276881178053 9.538533627055154
Sn 16.57681689173607 9.337254546366468 10.129421564633569
Sn 6.974825140273605 14.695049618562711 10.199590801904469
Sn 7.674802786411447 9.860349290201585 12.109314187742406
Sn 14.351734019885221 6.320691373986383 8.718944499173551
Sn 12.238756605484136 5.00310400046058 10.59227753524859
Sn 15.222630094990144 17.071677884341472 11.421152456267956
Sn 13.24102992606356 9.142933602132546 9.566207315978051
Sn 6.974424994718315 7.214854072156457 10.651615685032963
Sn 14.461926245005799 7.161816286266679 11.625885865701745
Sn 17.78214714778851 11.273289054674017 12.282722027664128
Sn 14.666516302558138 10.704617461902917 12.167757248395743
Sn 5.987255178852041 12.481345803981615 12.155175948975222
Sn 9.923906772396174 6.7857262840516865 10.677109726434619
Sn 9.085578566997158 12.480925034017453 11.231065643957955
Sn 11.789091763722414 13.721583858198448 11.97256417798132
Sn 16.7651773121238 8.40530604039964 13.168581630147346
Sn 11.526442081648815 9.85491940982205 12.494724403329322
Sn 11.624455884438527 6.804526710432955 13.2862514561115
Sn 12.120942738246645 16.83078093315646 11.954756509941218
Sn 14.359282002788794 15.420192768786121 13.887938832068768
Sn 8.104115947178256 14.997106108871254 13.122684201777538
Sn 9.194074091900571 8.579223623057086 14.43351274816731
Sn 5.817143186016586 13.61378195182096 14.972728973242017
Sn 15.641833679693878 12.582886562374537 14.402704467990725
Sn 6.340201027024358 10.463108252571864 15.194398805425154
Sn 13.909635724700198 8.611200682843753 14.372536766675339
Sn 8.898073636808116 12.101790752876434 14.732096655778495
Sn 12.562099288167168 12.757991218021221 14.723102635278481
Sn 11.00182473968651 15.376838308126052 14.5880099702201
Sn 11.459752375960647 10.151445118370368 15.864868853527762
Sn 8.369579658177408 14.931573854145986 16.29054282021594
Sn 8.593415929186872 9.84325484190027 17.289613928464167
Sn 7.107157510012475 12.47313408504523 17.602034430725155
Sn 10.27117560414664 12.60891802418326 17.472666835361593
