50
Energy = -176.45192039 eV
Sn 16.597159170565913 12.009855027674542 8.47960009962471
Sn 17.198570556116387 11.75501168047062 13.76629455541521
Sn 15.542145657752828 13.384742257078674 11.216981037459743
Sn 18.76290410564752 11.067426217638666 16.20764841177402
Sn 15.34647611324228 14.882125950566408 8.248270894818068
Sn 15.833649867184441 10.283853980907727 11.016046946126524
Sn 15.227243864682897 14.392053852975831 14.254532469989263
Sn 17.124478785173086 8.626064922710638 13.553501341436652
Sn 14.340114642374058 11.79738752787731 6.414237750150439
Sn 14.623148141984762 16.40442517358716 10.906501248393578
Sn 14.556561381623254 9.373637861674208 8.385006940332888
Sn 16.558440491040255 12.855092967273443 16.667918660965416
Sn 13.110866463220578 6.816481605942321 11.028845640080284
Sn 12.878083129509179 17.18396107904992 8.382131104413277
Sn 13.315000660982818 12.50193526484201 9.364676957120896
Sn 14.280072716309851 10.341843989767566 13.582039029861972
Sn 13.889820483044407 13.839153568087294 17.495976706086445
Sn 16.088613159258568 9.68870974332703 16.270040607290152
Sn 13.346186573342782 11.15540892759469 16.42023705471648
Sn 12.552816129035342 14.423241592567368 6.896717816879507
Sn 12.674101187921138 15.69226465816986 15.285553309988915
Sn 12.57878856873565 12.905033855018413 13.455425879580032
Sn 12.274698671335699 9.81116946506022 10.753527472307967
Sn 10.403961113787634 18.991754267399926 8.847109431257179
Sn 14.230699893134618 7.37309391829331 13.885399637232235
Sn 12.173997650196894 8.430297458989251 16.039369810773845
Sn 10.090015800116714 16.412400573257703 7.2667890592822255
Sn 11.996112913707027 15.10368599774815 11.418753504015939
Sn 11.846152807908494 7.624620582709034 8.348672429343043
Sn 12.047516468515207 18.32306880546385 11.267918318638248
Sn 11.662872016396323 10.604293784702476 7.597272890932115
Sn 10.780015379053342 13.412201929715371 15.798048481209339
Sn 9.827890502127804 12.008132584965528 11.363701772111222
Sn 9.787797588817917 10.741638495470127 16.811069257396806
Sn 11.071366457902407 6.840164433167449 13.425532189486908
Sn 10.60099208493401 10.106059509248192 13.830459147673304
Sn 10.426601740478082 16.864345556290374 13.396571766835304
Sn 10.092144078840565 6.225887684127978 10.620365046339392
Sn 8.928495965956875 14.200986559390005 13.334621791674154
Sn 10.35002070867181 13.993051212292658 9.072170205421063
Sn 9.263538973011645 16.677780630990565 10.448207404132908
Sn 9.363941415239195 9.241829761070425 9.745882743321934
Sn 8.946437865256494 7.884070474359517 15.474528650545944
Sn 7.869167084433676 11.739134943249955 8.842845841309991
Sn 7.660469610328405 13.294569984823799 16.043198097786586
Sn 8.220158342531805 8.099696365235776 12.395297186883848
Sn 7.178363051419511 14.000677318609018 10.787475609379765
Sn 7.49636252848134 10.560033154207417 14.737928482444424
Sn 6.638510409281503 10.74140814695136 11.517577612707658
Sn 5.965120364620263 13.129627274184124 13.461612595677968
