55
Energy = -195.12081458 eV
Sn 8.88709131027565 10.509423401973587 16.5180236434929
Sn 15.814035373245343 12.78552039186259 10.995668484025195
Sn 14.18434046796534 8.632046932285421 14.922007823773594
Sn 11.934855027696436 11.882237612788806 9.776945076400127
Sn 15.644018995033111 14.51313665117189 14.12212272245461
Sn 15.117978681844152 15.600163729575938 7.352241737105773
Sn 10.960879905532979 11.459554792914332 14.286650625212731
Sn 8.61864417065893 11.737408687099627 11.018520873376232
Sn 13.766162023322586 15.416053946834326 10.531230194938939
Sn 13.822376060509198 12.305591576112102 18.63722538275253
Sn 10.58268820114161 12.742078102721825 18.158655317403497
Sn 12.696745004374597 16.140300131883517 13.518125787721479
Sn 10.29976340466465 16.159948953614695 10.045086223776023
Sn 7.813904531585604 14.537238201766144 11.703888832457825
Sn 13.016744138786342 14.885976131862996 16.480369345335458
Sn 9.609166977585655 16.689944534434215 13.143221921345035
Sn 14.54382211091069 12.456393703753612 8.165464224617512
Sn 18.299803110369215 11.133707530443171 9.929197583515883
Sn 15.494149100860394 9.825775956875269 9.940547159925696
Sn 13.69250110102 10.79950863925838 12.423283226611996
Sn 18.843311965521092 12.686268727361488 12.464259722485627
Sn 16.637098574550148 11.068038272808993 13.85255207046293
Sn 14.015559517819169 11.950758597931571 15.429436704301256
Sn 9.569827259499023 13.56800686101971 8.614198900368184
Sn 16.83730888788879 10.975083159289703 16.920827329339556
Sn 12.523807958695492 17.685830065323373 8.648864682042555
Sn 7.60696122570034 13.438102324947513 17.209990090294035
Sn 15.588155176221607 17.834344990815268 9.427138165713684
Sn 13.546656042106797 18.46795395632744 11.610630033829203
Sn 9.591641939639771 15.65287602018426 18.377729156484076
Sn 15.974043832596383 17.550005595115216 13.448198349669829
Sn 13.26729372181257 18.605225091295942 15.237201171413504
Sn 12.344670888840591 14.857906118407284 19.595518381186512
Sn 9.572607825625688 8.909360839915575 10.81540480417376
Sn 18.947711484511277 9.285774887609346 12.610586759312335
Sn 18.387803160836736 13.732892055554446 15.575873339948398
Sn 12.000937291998023 10.147252266790868 16.936904736447417
Sn 19.564485475796054 10.835132905230516 15.232823950577226
Sn 16.05209320082428 14.170542378961814 17.450629993921016
Sn 12.297550387205362 14.665990126311083 7.730014572072278
Sn 17.12863083145482 15.538345869419405 10.470625562481674
Sn 7.2007285834619985 15.215276838545725 14.71123075468263
Sn 10.968901361789268 13.804611869271568 11.887442087762922
Sn 8.628052454069543 9.368915216072963 13.666359665464592
Sn 10.5682590569472 17.375032306259342 16.036112311400398
Sn 10.0498909593401 14.292908438606926 15.347094139405074
Sn 7.364195656535918 12.215564645627497 14.003550696783018
Sn 12.994701966082182 17.52085396857226 18.14369888141697
Sn 16.004906542795503 8.281382047054862 12.481800465677152
Sn 12.486238339611116 8.886618787837554 10.144151898673297
Sn 15.624358350524673 16.979739226274145 16.476059373103823
Sn 17.504559977771947 8.418553644981518 15.335381471922448
Sn 11.634862528706558 8.494586448744059 13.11390801953149
Sn 18.452436511245814 15.817798508848837 13.097110844794122
Sn 17.44820254388708 13.518578512744378 8.25633590590926
