53
Energy = -188.65843192 eV
Sn 9.683422155004635 15.742663263173242 6.564395047096851
Sn 12.769106359450676 10.239861070694008 5.494344650545225
Sn 11.264908799868122 13.157539461646525 6.588100585441057
Sn 9.616126196306706 10.579251657809275 6.362264951156728
Sn 15.730851842430726 9.458293245949886 5.557046185424532
Sn 8.226756670019917 13.251676364294083 7.442322315404387
Sn 14.78151584502476 12.438346406298056 6.373577644981979
Sn 8.005539177641422 15.901293019965077 9.251226371594738
Sn 12.888218287493384 14.030082257225212 8.97234695721989
Sn 7.114348360076175 9.570467503465709 8.285056354848898
Sn 17.159200771585446 10.987817852004003 7.727704774835836
Sn 8.490306743034465 6.734059602608102 8.775869117260191
Sn 13.712315266709354 7.4609067701211025 6.7367260557942314
Sn 10.958616650861984 8.66737315374848 8.331866022259806
Sn 8.450406743876181 8.934993201902762 10.924957579214706
Sn 13.956307714245794 10.219441386327565 8.40324673826934
Sn 5.677936916997129 7.314444755158438 9.888065465718695
Sn 10.562230608678643 11.699132135629648 9.32545990169294
Sn 15.628709884143234 12.621650518970709 9.806203930743575
Sn 7.772882832998529 12.598476907877746 10.456235506096503
Sn 11.15234571460034 16.63205399840917 9.11434322724404
Sn 16.162173642759793 8.135061224250205 8.493450169712409
Sn 7.88166106778579 5.837872613196983 11.696606813052757
Sn 14.617695080101125 15.291554040576639 11.215588396516338
Sn 9.337536639793093 11.240985049188671 12.947930698036373
Sn 8.879198583204383 17.946444035778512 11.309781592895506
Sn 15.222157865449741 10.694942877019045 12.101161917000704
Sn 5.496223110573946 10.307285302194321 10.831871977667246
Sn 14.844996194505818 7.794731132762611 11.416598095882247
Sn 6.204828188455624 8.145683149644906 12.980658381476381
Sn 11.008776728833029 5.913144544950202 12.097758232368347
Sn 11.848934913733054 8.935531713105288 11.558933271728002
Sn 12.729255798775604 6.547184196995821 9.71324030708862
Sn 12.895356291870966 12.67095894623577 11.832461537490076
Sn 10.231191192553814 14.762678605458376 11.370474438537652
Sn 15.609972218005645 13.468327637319964 13.47206065993082
Sn 11.868092332889393 17.455378089350155 11.968136406326924
Sn 13.085157986566818 15.294596004766792 13.992607021172846
Sn 15.39179845339172 10.483356862121244 15.23505413991217
Sn 9.659180672408471 16.53978036755517 13.957773165081196
Sn 12.455635565356516 10.045347771103543 14.529887119985787
Sn 7.261723168987273 15.304206025972123 12.344929782865671
Sn 6.491345106510032 12.212798594654455 13.51374696152056
Sn 13.29154843000605 6.8250367219802675 13.794295548197457
Sn 14.248458322304536 7.896020520678872 16.430085542366186
Sn 9.457220519595767 7.9217768852144035 13.911201742324875
Sn 11.185715784094574 13.031431697644567 14.49527890567445
Sn 13.866874211583315 12.96765469447132 16.150875961081656
Sn 8.43787177821429 13.905529155879197 15.102619087796862
Sn 12.982984829123708 10.363401437721144 17.78115429476616
Sn 11.15648032563128 8.065853301952105 16.553162487280947
Sn 7.6005157681989015 9.973145907783701 15.251432554549533
Sn 10.164084464717606 10.9591751362224 16.744522183897182
