52
Energy = -184.11742424 eV
Sn 11.974790655356573 11.149440802986891 18.027149879106027
Sn 12.793452777035997 13.897119888032732 19.1044333859464
Sn 17.567588895322174 9.542345844897776 14.50232019229547
Sn 13.972684963898187 13.119204643545359 16.402926598388706
Sn 12.62695244016145 6.151435825715743 15.087927482616822
Sn 13.127387735557495 9.220856348329319 15.656573946226528
Sn 16.889400564938985 12.371082436596453 15.501282876282106
Sn 9.204492801789192 10.513651561967087 17.120457378747894
Sn 9.985367080864945 13.707886524985899 17.877726882997692
Sn 10.153814570664363 8.371634812130546 14.967309578312207
Sn 15.23651816131337 7.570043862823366 13.785988749357182
Sn 13.179826098721556 14.804356387781736 14.074934036533234
Sn 13.240506069165825 5.056709285137692 12.210201195157937
Sn 12.552313934912576 15.907630413076388 16.937295651723588
Sn 10.303428232148713 5.639290342764158 13.100542208179863
Sn 16.30577734279612 14.996933080381838 13.894601076063909
Sn 14.85418169568243 10.91458060218695 13.643943003016759
Sn 12.342899211582152 8.242606734034876 12.545440178855335
Sn 7.361495483714093 12.744673242158049 16.173249885116817
Sn 8.367620418845961 11.032724897430267 13.852206439871141
Sn 17.678277425805728 12.360153234773403 12.501153449286019
Sn 16.92746733811343 9.412050489866072 11.599265951932942
Sn 11.306544286203223 11.635103450398159 14.931990490118967
Sn 10.077691456829843 14.518800734403307 14.893992383185173
Sn 9.18847248423997 8.361812444103215 11.963340580980585
Sn 14.574724809731467 7.293899092674548 10.560819895033275
Sn 11.486575912647902 11.209716383142734 11.65680749231764
Sn 16.609150518283485 12.650515215336076 9.348053744927038
Sn 8.451816436330194 12.569205351494555 11.09715709452973
Sn 14.072419402370194 17.62804493054756 13.427850508839853
Sn 11.279650619312351 6.387847495761304 10.194740431495196
Sn 10.858530463963321 14.40702585533617 11.786558583737934
Sn 14.55080175938542 14.019343050130793 11.325890176802265
Sn 11.27033637645435 17.580973764005368 14.708618266303127
Sn 14.471006146351433 10.913672086464075 10.599621725367737
Sn 17.430173396500713 15.127739465842904 11.043376139227526
Sn 7.265696213963742 14.144828028697743 13.590873397874397
Sn 12.502416729542848 9.125176524943539 9.05315038265377
Sn 9.674561795530929 10.192559003179076 9.489922970982663
Sn 11.718174929783046 17.270822606290547 11.440166945880275
Sn 12.000108249299284 13.045166101622238 9.034836003977595
Sn 14.877207764046604 16.97391669792682 10.582054486650541
Sn 8.859120524748294 16.762448861853308 12.874861624198987
Sn 13.10113140385838 11.288885133255205 6.7512382702210045
Sn 10.093277964402144 11.880407694094357 6.815504450617118
Sn 7.9851370141875195 15.442196477919948 10.182452095464988
Sn 14.615005041585864 13.791679421515328 7.369637337961836
Sn 9.846025418350958 17.553606372286147 9.07038080971103
Sn 12.84335279657948 16.011066481293504 8.484132143991538
Sn 12.016385035258555 14.149083057933092 5.592913028416641
Sn 9.617447832743728 14.7076950056984 7.663186389214495
Sn 11.119821711099297 17.038573551772004 6.316665846251156
