53
Energy = -187.45750802 eV
Sn 15.883555719185134 15.354387887111265 16.32535635499393
Sn 12.423180336840039 13.69921038207703 17.30586973903325
Sn 15.229201398399521 12.357866673366216 17.025999322034707
Sn 15.363246207314475 9.322431374454137 16.93196096133375
Sn 9.735152497856943 12.22417760278381 17.137732134206612
Sn 13.082265179630179 16.306829254021448 15.954925228791693
Sn 12.53873472533978 10.180102315183555 17.23393773183555
Sn 9.640653552058039 14.824016501313805 15.162012641360684
Sn 15.773270779224507 16.024560359009424 13.422839320164519
Sn 13.957217949211662 13.66095639654274 14.554008253071625
Sn 14.408344022853871 10.416306136320246 14.379593174251514
Sn 12.131060620220172 16.55687752180225 13.127812390679283
Sn 13.06509052190707 7.442852807951265 15.424191015488235
Sn 11.450222837966642 11.527091054612725 14.546128015445902
Sn 7.052372171435548 13.32715607912319 15.893887819403792
Sn 9.227564806897968 17.325229004553027 13.371284785031838
Sn 8.412507230652741 10.65291139023408 14.900872468992505
Sn 6.753438621784382 15.527013154921264 13.770284770199266
Sn 11.102051218781146 13.850463880650395 12.544967357515919
Sn 14.720927585183356 13.406848619684732 11.533441624301267
Sn 16.578450473837073 11.074483907112082 12.15380985814617
Sn 10.138508887041311 8.391050747494576 16.464191290634844
Sn 14.241475537699312 17.715194840679384 11.391280313456633
Sn 8.224674493017298 12.888877433428936 12.821875178471908
Sn 15.52584151904942 8.995686943979996 10.345927665449246
Sn 10.362205785970039 5.976307472076525 14.547459286526339
Sn 6.136458627887098 14.140455351684892 10.981430323675006
Sn 16.68481218579407 15.647799471258963 10.60592104523889
Sn 13.066165934132538 10.687242068630697 11.34774413025772
Sn 13.791713123313182 7.685793873855854 12.386718855896868
Sn 13.37159939970892 15.344180390858375 9.724730860876923
Sn 17.39369153306545 12.711097803205494 9.801632787449982
Sn 10.770082360215184 8.707738684720319 13.084352319865133
Sn 8.83731376267395 15.73084425149226 10.879852378836889
Sn 10.468651349066526 12.798787064099846 9.715656354714245
Sn 13.744264400006514 11.604485308967993 8.542659847173189
Sn 7.510260517716254 11.435648186376167 9.913802619159906
Sn 15.27799667523188 9.192553204942872 7.318058677966515
Sn 7.913461678495332 7.760221167025302 14.142942539206116
Sn 17.301649817340508 14.895652810671573 7.753223285083496
Sn 10.427374681287802 9.679074494788974 9.68196474130193
Sn 8.004348860707525 8.714387343210799 11.256226978400854
Sn 11.566398418592682 5.87240841367514 11.690343539798784
Sn 12.60438102467363 7.730311300622038 9.003714174787124
Sn 7.929910426412382 14.164959120761061 8.383953905628793
Sn 14.350025178959552 14.248164432268425 7.099640581629593
Sn 10.573104342196466 15.59225583979392 8.280530124245733
Sn 16.441072943392644 11.959127676634314 7.030165208585124
Sn 9.44887132676082 6.649334452437041 9.608105369851465
Sn 9.096461838038563 10.937264212925896 7.206454795153912
Sn 12.433512605919264 9.827911600962375 6.359376315584564
Sn 11.521181737683525 12.923196065700575 6.664300164881444
Sn 10.036679375561281 8.065711300989767 6.957862356630229
