54
Energy = -191.02219768 eV
Sn 18.57097108491611 12.963594609854955 13.79150192030899
Sn 17.27999190720615 15.779752878797828 13.045680028355486
Sn 15.494316793993383 17.39167468218276 15.069059318546444
Sn 18.70494071481913 14.225484917926673 10.738319518256818
Sn 16.49039051898882 12.76846426554092 16.362083492731724
Sn 14.533116080878518 12.746653568577793 18.795994452252387
Sn 14.589999777607915 15.094323060617636 16.653073491865214
Sn 18.490768597318123 11.152539839023623 11.162623013227073
Sn 16.56571390282924 10.21044206516958 14.1828911103339
Sn 15.970429772881928 15.65535823863647 10.261305338566324
Sn 15.948481847266782 13.045505457487467 12.206252493398644
Sn 14.797424715242991 10.285403999025961 16.98484484289388
Sn 13.955183929464953 15.392703888091363 13.116243444877366
Sn 12.706167642769222 18.283613850486223 14.2803785700147
Sn 11.954071442945617 14.303463368482962 17.824472420459358
Sn 16.276013751726477 9.107031428769439 11.346207992782423
Sn 13.573926348486587 17.800951827794446 11.308887624849197
Sn 16.471603721688705 12.673073349873318 9.254606295901098
Sn 13.600250837176524 12.635712372980622 15.125981288435337
Sn 15.7778416281428 6.9344231202438955 13.535027793439436
Sn 10.943876566381272 15.810893406868221 14.918667977837101
Sn 11.916013402019706 11.306446119355869 17.29188011075982
Sn 14.045455612948333 9.467702931507965 9.509503685060364
Sn 13.758191748905034 10.672025068457982 12.595291136899863
Sn 13.169103254228546 14.675058682506789 8.431790160170676
Sn 15.307390629784694 6.306503974626208 10.562202352710477
Sn 10.918349526786919 19.253114342542922 11.971694948424219
Sn 12.460618647373956 6.845735599318058 9.610682437961254
Sn 9.74258002334291 18.711466262864295 14.868660508762332
Sn 12.732034064511453 13.081644663914966 10.893272500347326
Sn 8.612836587515519 17.24660147598633 12.307465282924205
Sn 7.857119404374855 16.21717583664149 15.287742688892354
Sn 9.286447858768645 13.61872632601209 16.29792100632065
Sn 11.61391640728017 8.605693135795523 11.914774663813066
Sn 10.667018125473598 14.904525312403596 12.092040142179103
Sn 12.948879850645914 5.899541536474712 12.644719767727052
Sn 13.319509383740716 11.732323062961527 7.464699250376766
Sn 10.426198465408621 11.886165070295224 14.015737885802958
Sn 10.99703754067663 16.848870751605087 9.888433693408848
Sn 13.369137514408857 8.404548797915762 14.62509312678556
Sn 9.900991621119312 11.782498401670882 10.854915261466866
Sn 7.279365399543524 10.976359204505172 14.234682588348644
Sn 9.422536905457866 9.72317919407634 16.048186824547415
Sn 7.9638850625882895 13.899754891333773 13.282350994878222
Sn 10.658071035738418 7.08936484261564 14.832966449484672
Sn 11.017408352835869 9.903402113135627 8.635817926044771
Sn 8.18052653141134 14.411683624627422 10.17317378390663
Sn 10.412823595191067 13.405044481479164 8.151847838244292
Sn 6.915508660696323 11.675186926415922 10.978414133917031
Sn 10.617209195523323 11.20502915877682 5.845565215720152
Sn 8.192303071558634 9.154439456085152 9.661020208270237
Sn 8.89681347504771 8.767970342791445 13.031526685332585
Sn 8.01101951031399 11.549718005045532 7.627788773410282
Sn 8.98062998288803 8.790472087968142 6.667593682164314
