53
Energy = -188.0316946 eV
Sn 13.7150934193307 9.579189595674448 5.895663136187722
Sn 12.059042554103714 13.968192171292447 5.818632421930015
Sn 15.068048427690773 12.454955468467443 6.365857666463663
Sn 11.001154787554249 11.185134012009547 4.977285677011108
Sn 10.741580780402016 9.220044012843793 7.263080075463983
Sn 9.38220938680304 12.563210800518716 7.038966435804027
Sn 15.798819678030602 9.962644508379926 8.206392591289045
Sn 13.324538501229899 8.103112190871752 8.674255417546902
Sn 15.841129477078855 12.78018938825174 9.50374109087402
Sn 12.576037538303611 11.665766506853974 8.045217122470344
Sn 13.856711981321947 14.823022222718452 8.307335492355355
Sn 10.744971780826043 14.901562265639912 8.48696407427933
Sn 8.157306267401182 9.371201394985276 9.060130205193682
Sn 7.135488887536011 12.186805202800436 9.289808048512556
Sn 14.029255844557015 7.830071220404911 12.566759145391064
Sn 10.155235625670013 11.965804814268445 10.129086199721396
Sn 16.41323756817532 8.406244567506269 10.866486721141218
Sn 17.090156956729647 10.853304239425688 12.460883035335105
Sn 8.528010862857641 14.4724376892848 10.874991920910514
Sn 18.169121550069853 13.422057404736144 11.47174145395683
Sn 11.211018961881878 9.133593062259507 10.711053445372094
Sn 14.177697807287801 16.650994844967233 11.324124004094063
Sn 14.048424960173161 10.546788023391485 10.82507578006484
Sn 12.779679378395624 13.746310623515434 11.043451725352384
Sn 15.612841031491378 14.322764489803824 12.699420594526266
Sn 11.053954023166888 16.507661679929083 11.38808161232994
Sn 11.255396724513501 6.675974356931413 12.743536649204701
Sn 14.255908260081894 9.025910460429987 15.298877608407334
Sn 8.5968403190171 7.296373901082739 11.241544888250097
Sn 18.941183862997615 12.668601568021417 14.401310331286801
Sn 8.00258304287459 10.122246628586083 12.27616560054729
Sn 11.401090216674755 9.668032726284016 13.846595444478863
Sn 16.391263257601008 13.782406612239079 15.591755197909267
Sn 12.339368527860936 15.192914512762096 14.01302462335225
Sn 14.331441623603945 11.773326531556318 13.861984281591234
Sn 17.066658957340817 10.584963959928606 15.418169450415789
Sn 7.569275988580423 14.87773274001806 13.670649512711863
Sn 5.984395328680847 12.414048960586168 12.321647280010005
Sn 14.930088654815222 16.7701698287427 14.818772976178701
Sn 9.808779181610198 17.129036897698132 14.263999901150203
Sn 11.8101068540839 9.53031127167369 16.945098983966417
Sn 9.545810598868265 12.50077292784594 13.392634991734989
Sn 12.659770991824555 18.41337107817194 13.389027787720988
Sn 13.503957944184778 14.954818735813138 17.115298843807597
Sn 10.126526712000256 7.300735985040844 15.481628312104462
Sn 7.351661186278722 7.586006233523191 14.049338451814718
Sn 5.582010275738048 10.069024707064848 14.311482912892126
Sn 12.087101361801208 17.605093358765913 16.35606840610134
Sn 14.543750980200757 11.874662302413956 17.076305709872365
Sn 10.337466765251962 15.06228735851281 16.569491377611648
Sn 8.606861999608219 9.990980295440387 15.699685809018154
Sn 11.78842458348603 12.457384019963047 15.599556388804597
Sn 7.007038595692645 12.576592511917605 15.46221593388504
