5
Energy = -15.18197931 eV
Sn 11.80196628462571 11.58566622043389 9.51515064652549
Sn 10.812196843058542 9.000806143663034 9.126965082867507
Sn 9.303977791412507 7.402484259663999 10.869598845470527
Sn 8.941173334766415 11.777951984306979 9.060639160205804
Sn 9.119402358618464 10.211254509184949 11.427480144569252
