50
Energy = -176.86253409 eV
Sn 11.497325129124246 12.362297043327073 17.883301838908363
Sn 11.420756130886545 10.70435900092589 15.292232767137657
Sn 14.09135477589875 9.093479801938225 15.078712795031853
Sn 11.215759599814229 7.303107788772944 14.464672569361705
Sn 9.734298671402163 15.01578446555775 17.915712223786088
Sn 12.95045943412639 15.25704070318045 17.65199387258896
Sn 10.477605201182861 4.777332752960452 12.763151607723474
Sn 14.263521117778447 11.99833403684874 16.53974545995748
Sn 11.359423947112806 14.609897667175623 14.974306802430586
Sn 8.530925799541963 7.189180623152789 12.785189374288073
Sn 13.33598113024976 5.883797639714913 12.42296654905269
Sn 10.867101909896709 17.52928538424235 16.64285010578245
Sn 8.930673018352866 12.731842895543881 15.903368968476688
Sn 15.70056188730049 14.617336668364395 15.98023913282464
Sn 8.558442379460732 9.64860165455283 14.64596464702327
Sn 16.596593451304077 8.61603518392778 13.505779886754947
Sn 10.60885935745876 11.283833729324094 12.541705210173498
Sn 11.761630495755867 8.471600369468895 11.712462317698986
Sn 16.65058091277178 11.455072534166218 14.416012154701125
Sn 8.591041612964247 15.917316013628334 15.049565091293347
Sn 8.537772950982268 5.238570218010613 10.389336908816656
Sn 14.552566347555581 7.760898118835146 10.3167067858127
Sn 13.540452025140283 17.083321273174377 15.101196271239203
Sn 11.531109826023904 5.467764257003796 9.866376512755567
Sn 13.872675049673452 13.22610379125486 13.73213256381502
Sn 16.713323258395437 9.887467943782836 10.768856341123401
Sn 15.604086850420119 15.685657111499546 13.134225857143335
Sn 8.161893783485096 13.380164251288454 12.869351475098075
Sn 14.224976463669817 10.502345490726329 12.324009218708373
Sn 9.235006112317922 8.150650100075554 9.969139538467106
Sn 14.290264228857929 10.775379508211271 8.176158934785827
Sn 16.57340210176616 13.097078404192509 11.877684274052147
Sn 10.741203003651503 17.527982600228338 13.508881812078146
Sn 12.080232661540023 8.243879175508063 8.59668564648903
Sn 7.871350121145383 10.463495569410142 11.693197571355771
Sn 8.266878043763027 15.83846637822236 11.049271757869535
Sn 10.83541416947179 14.192227881549702 11.498382382926687
Sn 11.712132560364257 11.850259495301637 9.478378108100927
Sn 12.91762104781057 16.25014150231797 11.714768575431043
Sn 16.756333142244255 12.425582517448758 8.8310108511223
Sn 14.148783059942446 13.787562975273158 9.742776009816893
Sn 8.615371531145161 12.814361902827889 9.559893930040875
Sn 10.686856530180275 16.748019797500426 9.400988117558388
Sn 9.84642579525344 10.170438938143116 7.75545447092413
Sn 12.215133729001836 11.780596522071901 6.132294489376181
Sn 10.957406580940741 14.257853245535403 7.5804540413274
Sn 14.876792240511659 13.46691844307473 6.627362216871699
Sn 13.412781928643254 16.082733098544786 7.778489515280279
Sn 8.204491913634447 15.326286507014828 7.916517118532297
Sn 12.538858273398423 14.724681222896411 5.126413673181255
