53
Energy = -187.82872714 eV
Sn 17.61535260250502 10.506366044742098 10.88147948971391
Sn 16.38195734535806 9.728121910841022 8.029490485189735
Sn 17.315824104839432 8.204280651429826 13.13558528696472
Sn 16.147242526756337 7.795285308371158 10.367150092281676
Sn 15.683455063052087 12.931948761008027 11.675080928585428
Sn 12.55731295071148 11.028233394634515 5.576613696445337
Sn 14.408697170326176 7.323358178405833 13.786841062069673
Sn 17.496264983914752 11.378902433191168 13.883834547120399
Sn 15.453870739117715 9.756465684485331 15.447001344266535
Sn 16.572881650885535 14.303952596743704 14.173288168112219
Sn 12.154088392439188 10.128887231537727 9.915253460365392
Sn 16.687277176331754 12.8120733816304 8.825633314606078
Sn 13.02532440580361 7.305061844022787 10.51321259214583
Sn 14.928961812842687 13.632951911969313 16.571061885770526
Sn 12.670679576374809 13.130592703593255 11.2168307803028
Sn 12.667542791515169 8.43768187009726 16.173641212701888
Sn 14.662072728957598 9.971761353504945 12.191959188905418
Sn 13.668556342107612 8.563047884260005 7.5500611171349465
Sn 13.86370429258238 11.89461035786147 8.144573461330433
Sn 13.376097531665843 14.46977829704303 13.969918827422312
Sn 11.299672663596965 8.273715225938036 5.767341377073661
Sn 11.360826172522891 7.6642231640306715 13.240394277150637
Sn 12.836166287016681 11.473375003955377 14.904736139520015
Sn 14.11100583594995 11.051730337808959 17.86455069151184
Sn 14.30542997212826 15.117621020630974 9.36131799553197
Sn 13.2320289043102 16.123956063599216 16.58644924484125
Sn 10.407027366376669 10.672258013823173 12.319267350281843
Sn 11.146937520424821 11.36336711338711 17.604276546755177
Sn 11.409001029547074 17.090132919044585 14.129596103980244
Sn 11.12128312122809 14.1307593431907 16.579009138889138
Sn 10.046896380024467 9.827771894353535 15.192884055147585
Sn 10.330077153551798 7.834148967275699 8.635702490300584
Sn 11.82243434934067 16.109815218675 11.104855202901645
Sn 8.692677569536697 7.604870230912944 11.575240535564275
Sn 9.945006320296008 13.784454191756163 13.425755484465647
Sn 10.34456248864336 10.990618580146597 7.5704337994080735
Sn 11.774761247838141 14.467878499728998 7.44653590486695
Sn 12.515734187424544 17.28261813406631 8.324408543581345
Sn 10.000648902327875 13.396787097581269 9.703455962306437
Sn 7.181429913985833 7.128639666769064 8.83243766995032
Sn 8.17351080357985 10.162410608294035 10.096005859666278
Sn 8.825356098780532 16.522862884868278 12.496222730328968
Sn 8.327612997139928 12.864347928920065 15.905773984239053
Sn 8.79256745548135 16.046828850840896 15.676875504995653
Sn 7.4118136754400545 11.484744321759804 13.118806383502461
Sn 8.019192109650357 9.16248689075641 6.653228596432725
Sn 9.645592968499775 16.367716432876414 8.979988543939871
Sn 5.7733103092999105 8.590749488976165 11.272778209439991
Sn 7.373436749012042 12.052048023475685 7.903525565245963
Sn 6.7229731344561054 14.599068189017807 13.909047576878498
Sn 5.444621368875082 11.630756433328854 10.705934394168484
Sn 7.3481389198235085 14.118614481998081 10.876803608640536
Sn 5.332000222238439 9.616989170189774 8.251248121397806
