50
Energy = -177.57901149 eV
Sn 10.292512790509589 10.596836838506967 4.9975978308212685
Sn 11.288410382351323 7.595865948198813 5.633804865112532
Sn 13.347861319236412 9.909780682961129 5.193316864541427
Sn 11.42913957012781 13.473996664423623 6.481446847954517
Sn 13.652758257213762 12.782366296053604 8.403694938718978
Sn 6.326086926075243 10.554442708081861 7.844343650616444
Sn 8.979551725294117 8.86199942705314 7.270126597637766
Sn 9.63154995542731 15.854515954407049 7.542544284415501
Sn 11.791564077419977 10.273573552418137 7.794557979380914
Sn 8.918925517695397 12.10192767492929 7.499460171464254
Sn 15.494624945702652 10.461200501685965 7.703656996051209
Sn 13.952175404756039 7.722205412627271 7.311923403987633
Sn 12.774536406545907 16.058667709865464 8.017677595702818
Sn 8.343788722906824 15.889525580703927 10.36345654988411
Sn 5.89358851119105 8.685720081146941 10.371970776275404
Sn 14.090408143803376 9.434826949597973 10.230155461383854
Sn 16.59864099348965 11.336756104743246 10.725477297208506
Sn 8.866117872034469 10.63776443517413 10.214501848242543
Sn 11.347151024335222 7.408568185086761 8.867033348336378
Sn 10.803818047459906 17.807978000633817 9.669249772649557
Sn 5.629376764710764 11.858257532405785 10.442867375221626
Sn 8.703951396430865 7.625453867560746 10.735672722457377
Sn 10.989017591613147 14.449316702492956 9.975577604038552
Sn 12.8469639830892 7.092405748792087 11.88713405071448
Sn 16.34404815350376 8.551794864772896 12.353474084975119
Sn 15.037696291795333 11.252115224301368 13.588583529209219
Sn 6.82218439439355 8.270609485032013 13.391713533878564
Sn 8.050233927670702 13.157195797877394 11.74171013284546
Sn 4.297237696686974 10.111066492802905 12.574765290486866
Sn 14.351608320959276 13.566073974920435 11.259528351615291
Sn 18.240335518389127 10.979756382663561 13.304345220023825
Sn 13.23640784376713 16.462726923662107 11.065876707833848
Sn 11.878908484135753 11.507468941278393 10.92715318250252
Sn 5.204097790207858 13.036000444471073 13.295446967884327
Sn 10.501132944314401 16.33051248149221 12.504621904463479
Sn 16.900075789525633 13.707536009130097 12.927910339354652
Sn 6.132392648722711 10.69392813134778 15.138681829398884
Sn 11.827121693942486 13.607524989942295 13.211172790119178
Sn 10.141610306387127 7.342885472823863 13.346786426220685
Sn 8.944477551487621 10.542751023285444 13.626292816039276
Sn 12.26512330586126 9.646991192330077 13.571026686473978
Sn 14.788684064314307 11.732684964036421 16.706995093078316
Sn 16.564701085566668 9.407463695978517 15.467905217486283
Sn 10.173893689813994 8.725996033629597 16.05896902772494
Sn 7.840536864352025 13.425459828359303 14.724775157965345
Sn 14.446696620658132 14.096382072459727 14.755828856775139
Sn 14.437092888026253 7.309658578889666 14.502771488906365
Sn 8.902693757365498 11.389784072527098 16.740128152855775
Sn 11.761244733461051 11.82633260316661 15.711184655459576
Sn 13.170880605928511 9.098985059927164 16.57874102426292
