51
Energy = -181.23127499 eV
Sn 8.297008920411894 9.9036826702149 17.49269556680742
Sn 13.864130400093224 7.617429860341472 7.145106046262787
Sn 9.82352076182328 15.569880712055468 10.85870820621404
Sn 11.448113821515678 5.875444201907789 12.513165593433559
Sn 15.84899168330449 8.273788576675127 12.754050379990835
Sn 14.370444429559315 12.679134391841215 14.400420285859347
Sn 6.868686104583614 15.767829733849002 12.053334746120768
Sn 15.019611024153068 15.675192443082516 14.17861697760943
Sn 8.851772186891008 7.502206157385524 11.790526133426608
Sn 9.334862084266256 15.256067147378138 7.606977629833573
Sn 5.989006138448593 10.625343127051407 8.594040356328104
Sn 8.951089875193757 10.092154123981125 9.545861955584646
Sn 11.287750950912704 8.98658643178814 6.324441360055619
Sn 8.34020772852026 12.173155919636836 7.045204810040174
Sn 9.89248010340133 9.947630366838242 13.27840267806334
Sn 13.006910147508476 8.333209685268018 11.375364912759977
Sn 10.406900855954714 8.07805820795035 15.992137137410676
Sn 13.30771783612228 7.516791480144623 14.364123392285006
Sn 12.810040761613731 5.731891319605432 9.72911805029958
Sn 8.554975302592503 12.749433588080562 12.128696178012925
Sn 15.367723465356443 11.172594261224337 11.99480045009781
Sn 12.389725210731108 11.60095672061723 11.77211704928944
Sn 9.25113283132128 14.776418120332806 14.311218017270244
Sn 11.739389210813664 12.095211071444028 6.160115825488944
Sn 5.46656978817751 12.840428485561768 11.570597765629449
Sn 14.499751701476915 5.432111499691466 12.308840993896187
Sn 11.291536709198692 10.186194767494591 17.916981353378638
Sn 6.590661433303404 9.88387496233735 11.560679060036778
Sn 16.66238234289746 13.026222626590515 10.078527064937902
Sn 6.636712153664054 7.644828705836853 9.252480857871825
Sn 7.884872777492127 8.916817352824568 6.776164217177817
Sn 12.998099160502242 10.340510722480502 8.518469902324922
Sn 7.552619428720526 16.97812490698386 9.307711183622438
Sn 10.455944055269832 12.81144492629403 9.390746042731317
Sn 6.407321546225668 13.643110881615824 14.373012774249966
Sn 13.838488328745855 14.025256589794829 10.301267173996095
Sn 15.938304832215165 9.760712012343172 7.790753999551617
Sn 7.257090615798287 10.675210333865342 14.724994223285364
Sn 9.851861833807526 12.035490095822636 15.817978540452764
Sn 12.13429506785549 14.29457341197756 13.145478813450612
Sn 17.11579404580081 13.554055288686 13.227790142974339
Sn 16.22258925230067 15.836281816837042 11.335326844119049
Sn 12.399383430426893 10.434144799953458 15.09244587205643
Sn 7.004256810379192 14.010089737009467 9.299139689077473
Sn 14.759646446910766 12.617337420331493 7.137287922512707
Sn 15.572976100654357 7.182693780095006 9.917474340919519
Sn 12.382656635925304 14.69969712021979 7.785641944563712
Sn 13.281750050502756 16.64761671108739 11.739350460149987
Sn 14.06220160269127 10.208777723765156 5.347172541548693
Sn 9.743835395082241 7.312626963149222 8.721588065428548
Sn 7.706998184465002 7.742467604241625 14.893646037095868
