52
Energy = -183.91242198 eV
Sn 5.653267220984551 11.129577450570407 7.108632902547946
Sn 9.758486723901479 11.74179807599658 9.517539410162437
Sn 12.683901218263891 15.697736175561198 7.815675388476281
Sn 14.327855960424865 7.088407079623994 9.037250716375823
Sn 5.304829079909594 10.431613842106177 13.367428645352081
Sn 6.872836587574738 8.628377815396167 5.8417909579344585
Sn 10.287648814405093 9.035173728677274 11.876700038846744
Sn 15.832739205283719 11.568540652133835 11.684774077257888
Sn 10.75345923141342 8.168854356112304 5.6889264998083044
Sn 8.202009204948743 13.984113925191513 15.253125835840912
Sn 14.648154757396625 7.752094090750249 14.331974181154223
Sn 10.979817969947323 14.993074966329186 14.43190054385836
Sn 5.35653293231724 10.360460442319665 10.271243594113784
Sn 9.033409655585151 15.04978121478268 12.158724856298296
Sn 7.045797972670059 12.712980153259052 12.572657685847522
Sn 7.069622987913469 11.5889279783369 4.3647337858334545
Sn 6.683850570214173 6.038625002003953 10.608396764928319
Sn 9.536184140730095 7.488930091517462 14.595439197134112
Sn 12.340450398072635 6.750456415679415 16.026952589531454
Sn 12.160279902711773 9.765836829557424 14.38278219396594
Sn 7.249875046827404 8.358214151602947 12.525741480282
Sn 8.169929593076938 6.558221927087198 7.816264851068921
Sn 8.926850979738237 10.674125100547846 6.73826002319722
Sn 10.675447883051092 12.358097863210638 16.21740817826782
Sn 14.436720155934157 13.176763023462055 8.65641039547898
Sn 8.034879042863762 8.946034218478388 9.620861533369226
Sn 9.694035954744571 6.222337115580137 10.617444143039044
Sn 11.921422369665487 9.28752451355478 8.440297315797588
Sn 11.543545082363382 6.215542175363854 7.987317340544758
Sn 12.74531134985509 10.571405284961086 5.583599950576004
Sn 13.597866039305233 9.124007093286416 11.434189507320632
Sn 13.72708642871326 9.29063635851416 17.06753637442363
Sn 13.5048250784021 13.133592861834902 13.636890421293204
Sn 10.110054257669585 12.232605564328177 13.052698829872377
Sn 5.180719267796656 7.85392366810782 8.511474304337389
Sn 11.59458104141389 12.874467930242352 7.349365236929997
Sn 13.86689953437225 12.33201675432771 16.53924448756654
Sn 10.491456818598142 9.225227573193202 16.96422393625767
Sn 12.684410508041823 12.10531996133353 10.884939892871659
Sn 14.890624522003204 10.060677075109298 7.750395544408626
Sn 10.065425790956283 15.311762877029429 6.0248044005281685
Sn 16.453772940721038 9.080533481836177 10.11870024791668
Sn 13.803473654876157 7.599729222896848 6.109177665794162
Sn 7.300256594599922 13.832605508271588 6.3954018777022
Sn 9.670323604877849 14.806961687651743 9.02027535804918
Sn 9.901841037535029 12.546880838892461 4.579582773377499
Sn 6.8836629222486385 12.966687920491932 9.382034301142763
Sn 12.009643901835949 6.5568267963921505 12.928882229581907
Sn 15.102679395205573 14.512807159275019 11.29532698204158
Sn 8.077259604106048 10.859340924847285 15.011643329237291
Sn 12.191952769843644 15.192003392483926 10.780232242933277
Sn 15.554563493696294 10.750290889505928 14.61525617913174
