55
Energy = -194.67429023 eV
Sn 9.369779052173229 9.022715202181512 13.500131498094941
Sn 13.632911890528343 6.133822858980609 15.916566765859152
Sn 15.348710246553347 10.253820631423848 12.205630284222705
Sn 18.133265431915675 18.438705973859626 16.27726899857934
Sn 14.776826528226804 14.084641485572119 15.444168069466885
Sn 12.188177503905411 15.223166722005026 16.862531439477788
Sn 15.528054003619781 16.893890208307955 16.58823188897632
Sn 13.730317931277124 17.743600416530324 18.92137089208604
Sn 17.55723722684184 8.533532746422933 13.803220654775197
Sn 9.164859504430334 18.82293022680855 13.32812343757378
Sn 20.20521465658725 13.148056803438788 15.28497056630026
Sn 12.655760812334256 17.224850089740865 10.453078899885922
Sn 13.335330123977313 10.893231741008208 19.330023116848214
Sn 17.69506543205506 16.40166948343104 12.174342760929639
Sn 8.999958333144862 12.432201940369211 13.052070857509891
Sn 15.87889471595037 19.19865411080912 14.332831528799117
Sn 15.25747924556457 15.685386187610492 10.084833056904067
Sn 11.403726297743738 10.931017283094171 12.218725160047294
Sn 18.26988015892098 15.532800229617822 15.045739473929265
Sn 17.80357284274323 11.472649990699106 14.310939337047772
Sn 15.844978247761848 8.033673482319792 16.271499262124482
Sn 9.299389500785463 19.831724104414626 10.469600820524688
Sn 20.255208731571063 12.044866811248813 12.408857516385869
Sn 15.1519649689894 10.840509421785764 16.997068078997568
Sn 8.894867984635058 15.670456737326207 13.330970252611884
Sn 12.906510153937699 18.547080367854385 16.012461952843736
Sn 12.707202988738441 8.463180939617402 17.65921978834943
Sn 13.604845038770481 11.122381240287025 14.480751134346008
Sn 14.669365540077013 14.645603184353488 18.692287158533052
Sn 12.254005179906775 8.513685091604152 14.415051355439434
Sn 11.826369472222213 13.637393433095056 19.418338764571494
Sn 16.848840380440958 18.16619721779311 19.061146107794432
Sn 16.59043818371219 12.039588219468436 9.784367932498169
Sn 20.54464368358039 15.036251385155166 12.852904809850237
Sn 14.805791572444472 7.242885995341956 13.304595160004551
Sn 18.373305318166555 10.011310556362217 11.19277410931309
Sn 10.481420311127216 15.099770466006182 10.701571029039242
Sn 16.30047294939857 13.466871791816772 12.520255919941546
Sn 10.112891247673728 17.332547613542598 8.607936553670372
Sn 8.006994487033687 17.122567911510128 10.839483731984162
Sn 11.793039503168897 11.946221778195195 16.955220129854858
Sn 13.366845867005791 10.708036498019467 9.927516174647506
Sn 14.166516536877163 13.234958534806234 8.46271386647534
Sn 11.679491048742406 16.87788261409857 13.333191468352831
Sn 15.36689721661114 20.199333527642295 17.451977064482215
Sn 17.235016559542917 13.247451935751194 16.936633743206762
Sn 14.711681570963433 16.46950480312842 13.46383009445771
Sn 13.897228654865316 21.244224268256218 15.171157124482967
Sn 13.32096255709024 13.639313152512171 11.323597452763252
Sn 12.001262119732067 19.82102442217633 9.196672977006259
Sn 11.918970945049306 19.79239267218523 12.288481766965969
Sn 18.75480755812715 14.068537343822769 10.520015962485347
Sn 9.163273703912933 11.23309142434005 15.787953610481761
Sn 11.743701325914088 13.59365239216479 14.041117910261622
Sn 9.90948525854203 8.428192635697354 16.42768883354932
