54
Energy = -191.116866 eV
Sn 8.582646480015566 11.392907866097756 4.506070422039599
Sn 12.95480020478825 12.5102350389451 5.205876334527023
Sn 12.593389965719323 9.489816030637002 5.456967790011237
Sn 10.323545730909911 13.02356434556584 6.521204850101683
Sn 6.635074371184371 6.587826177923096 5.93163534274529
Sn 9.5703252346263 6.608024487961754 6.4718713706745365
Sn 14.419304081084439 14.096289426382148 7.478968941800904
Sn 6.615013707940707 9.674971032095305 5.985073709689769
Sn 7.2711220421022205 12.726560068793008 7.0733454838009155
Sn 9.855614418040984 9.677652946732069 6.6447993577527535
Sn 9.541141396518459 15.834556282315198 7.140178813356264
Sn 14.043130021988715 6.943867034493425 6.0806799769889635
Sn 15.258028657996363 9.103915727115554 7.7152616916931684
Sn 12.010367095592144 5.207497272013737 7.503094716445936
Sn 13.165842160085365 11.365729545957526 8.077605272642197
Sn 12.163518301004682 15.780246381061293 8.48123275026542
Sn 7.659700316045574 5.194215223531761 8.431036935172218
Sn 4.201194660758541 9.754418646110572 7.768217967953855
Sn 9.072245136542263 14.084738138782344 9.476712907429004
Sn 5.832637957520631 7.518979155637118 8.971598077805703
Sn 12.270001905508034 8.210780564221754 8.455396851920733
Sn 7.263158911432377 10.32819681942754 8.999972819533113
Sn 6.329172718191515 14.055858505698996 10.75457361025041
Sn 9.052440025746822 7.8187792747617255 9.361493967558498
Sn 15.608949296549799 12.67939695049938 9.968106572266162
Sn 14.913134988102515 7.634875230692802 10.304226124142517
Sn 10.34662334925837 11.271477972835001 9.308541660140747
Sn 12.59096782905463 5.678937657682187 10.502237513066458
Sn 9.679757827756866 5.789800931553219 11.694184291527762
Sn 4.7646236652755 11.565565554747936 10.10181869343067
Sn 12.53188530932781 13.510018906446769 10.419758222372344
Sn 13.873474959262724 10.512381505563493 11.222961994671778
Sn 6.448351306635296 6.727619276210398 11.878763758402991
Sn 5.44992337488628 9.616581550837331 12.227804816327863
Sn 16.399796003114055 9.1684721617473 12.382952887601606
Sn 7.792925935020211 11.984014603066564 12.302836401371607
Sn 11.6299005582029 8.387369635046483 12.201563273408622
Sn 12.55117286160373 16.434477373206335 11.470855098014065
Sn 14.724373316324998 14.334382416388873 12.396143636166782
Sn 8.582418819776706 8.853779956953478 12.620023106982936
Sn 9.968006585338903 14.970599346112783 12.260520473573946
Sn 14.356735200354088 7.512847883652002 13.615236265781983
Sn 10.867861292487538 11.758747579397204 12.624454150576822
Sn 7.293709998596301 14.891382847008872 13.556899429639484
Sn 12.532033647650582 5.17384617388107 13.47953911130926
Sn 6.034131966165307 11.070020546701567 14.819750792465985
Sn 9.95067878472077 6.589511220572679 14.618828468259009
Sn 14.157059550326808 11.580338031367319 13.9582653924254
Sn 12.213470762741764 14.266602577894494 14.15991802331979
Sn 6.22771781547357 7.970769365901914 14.763660943464286
Sn 8.620734743300837 12.69105944985881 15.263218235425905
Sn 12.20572463062442 8.581541743875254 15.2952693941064
Sn 8.757624836364414 9.526471061416922 15.642228718090458
Sn 11.473311181530374 11.50798039379175 15.677058486679158
