54
Energy = -191.51004762 eV
Sn 17.131632828275364 11.330140546925017 16.075392254631392
Sn 18.86449286113226 9.469402406269277 14.163296485347187
Sn 18.168341202274398 10.365050148942796 11.368629102216966
Sn 18.007449482960574 12.61508062893987 13.458872596038434
Sn 16.465197620727267 15.526575234289247 13.62130653721185
Sn 14.460579125325644 12.973626080340058 16.911049047526113
Sn 16.07207324274926 8.491457214786758 15.527942420674123
Sn 12.565190613359047 14.88828248133021 18.252347865578184
Sn 14.503700633667666 15.911668102425072 16.01807811953265
Sn 16.18703372706886 16.038556417500203 10.519021002653673
Sn 15.72299799246938 13.308191105322788 9.424717331136275
Sn 13.231329846546672 10.738525611294769 15.163432384866839
Sn 15.345663139208595 10.874702568333685 7.662342992720056
Sn 15.741896352701673 10.618156369236075 13.308064287903496
Sn 16.854734354409953 7.76197137851738 12.651338006634443
Sn 14.012622705773651 17.022417814101633 12.578966206198066
Sn 16.370121644671492 8.646832912920257 9.506862336742556
Sn 14.796318899347513 15.721918913589088 7.6360161923484355
Sn 13.979028942422207 10.513935857535037 10.461734272330345
Sn 14.564751159921817 13.601386778742949 12.228426045621868
Sn 12.156890729595977 14.12120207529257 14.90485506907479
Sn 9.722423254086562 14.800157976531025 16.84359773589089
Sn 11.294483051579387 12.17886564121979 17.416078077469205
Sn 13.488483457031942 5.91542837875762 13.997015128085675
Sn 11.670427877521373 17.049275801800427 15.998469506480893
Sn 13.836770081053812 17.8297810617374 9.524762483153406
Sn 10.941719426178611 11.136382616391566 13.10903555509387
Sn 12.784019435627856 8.544842238578266 12.669032676129435
Sn 12.270209178983336 15.085405707992486 10.926394307500725
Sn 12.848012620268351 7.914293632041132 16.281317206902795
Sn 13.658120543222035 7.38190469901071 9.906416541400803
Sn 12.669771111884527 9.296220279126414 7.755517487265633
Sn 10.15881872903256 9.68979785028559 15.832277382279473
Sn 11.693147969623704 15.907901934726546 8.10446277655987
Sn 10.556678955519878 17.939480875546113 10.202908017571232
Sn 10.867297445567695 17.0602990535449 13.059890898577134
Sn 10.871105585409776 11.346672609363381 9.9250228055434
Sn 12.793197196954265 12.975129044748453 8.164448917959003
Sn 11.626190084330354 5.819040613550409 11.528292912847217
Sn 8.380187809876459 12.88816113488063 14.588460257580818
Sn 10.539952539620717 6.830535977077907 14.372288909634644
Sn 9.723121704150335 14.100891962222981 12.178790071340215
Sn 8.910460069219916 13.910217225940164 9.187928559264648
Sn 9.766351915083733 8.799529203889259 8.566552636064753
Sn 9.86103310899275 8.32467303099868 11.614510578367915
Sn 10.591660237617473 11.29845291887404 6.674427840372658
Sn 8.05592196188731 9.678126029685377 13.571534803788854
Sn 8.019813804455266 16.343553800267976 10.733740705385474
Sn 7.921395985776486 15.934955528257044 13.939970129950536
Sn 7.536456314830719 11.781224989147555 11.322710453690208
Sn 7.876411111275584 11.134098350359292 8.283777349016168
Sn 5.687311923647665 13.450913540018243 13.196616492595858
Sn 5.835884571627738 14.001520481006496 10.06494554255735
Sn 5.42859769436109 16.236004275832055 12.148982262574966
