53
Energy = -187.68703639 eV
Sn 15.500181985950794 9.331565793580822 9.650457095716956
Sn 14.333348722579318 11.064538557447603 7.21081068803293
Sn 12.225292087704743 11.506711303973905 5.101425336670087
Sn 16.626939484294596 8.646576438747783 12.501169840722046
Sn 16.371793064146438 12.328944456786859 9.608958423797601
Sn 11.302397134430816 10.036825645770566 7.610969520989387
Sn 14.389705850711549 13.762694200856236 5.829977677295677
Sn 13.885687889234402 7.225846710829953 12.375341184073427
Sn 12.754075633199179 7.837676387783388 9.62049469977515
Sn 17.4110165270254 15.083234534239471 11.452498693100534
Sn 12.889523069549972 5.884326153359469 14.931057181372012
Sn 15.883231174995815 6.560436885732831 14.674727130653526
Sn 15.751232158422123 15.15121030080747 8.732690061488634
Sn 9.78791349194842 6.634681081670054 10.09824273659619
Sn 13.012540790270997 10.986561851895786 10.383402527607343
Sn 10.288249512374463 6.171624990502268 13.13386196096575
Sn 16.587401751230736 12.213409819549012 12.774160138214928
Sn 16.59783170406151 9.56232201103365 15.3816150706933
Sn 9.691456507111564 12.697310477126898 6.924488314043047
Sn 11.509561984272569 14.650889966109135 5.512278289733292
Sn 12.455271063000128 13.438714620083369 8.177647805714642
Sn 14.090946923408037 10.280327403650519 13.482420023396026
Sn 14.205664580752138 13.902958847731016 11.173689578151965
Sn 10.904934995925846 9.066614603374266 11.759798008525195
Sn 15.025382695137791 17.0080915305275 11.22146832598698
Sn 12.835622911981776 16.504966063564794 8.950328321949883
Sn 15.269141904891217 12.424729604472823 15.612123966362992
Sn 8.439556164388462 9.325777393950037 9.844926632004583
Sn 11.430007606081968 8.668461126623942 14.703449669213489
Sn 15.435852690983626 15.202999108178727 13.779183103850785
Sn 7.2023863860460375 7.211739636054508 11.981961409493444
Sn 9.814221465118768 16.02591904383433 8.551772708085593
Sn 11.07179676476822 14.79752786739835 11.257164259520318
Sn 10.80985870305763 17.90290437225558 10.932287925606316
Sn 9.966299633847804 12.012012777197402 9.991068738403335
Sn 13.952804235775021 8.49111093083152 16.4059923513862
Sn 8.267389654744084 7.710240562620248 14.906248465639246
Sn 12.524019078768458 14.041818463912223 14.571847852167162
Sn 7.522586998262204 14.171655400155279 8.633581647612727
Sn 10.320957180204996 12.063876302154288 13.785030207939473
Sn 12.4351491647552 11.493702224104963 16.5877127998227
Sn 13.299214082501576 14.394864457582115 17.54535399500864
Sn 5.73688628562925 9.713132023515142 11.012991527103821
Sn 8.23850372589572 16.25004004512046 11.29479702409546
Sn 12.58811069869944 16.850773577595525 13.293774477593939
Sn 9.417821692040539 15.078683379888574 14.24234313424759
Sn 7.99593767468712 10.018474786361093 13.089872390904922
Sn 11.372285544136185 16.490721835618817 16.273131771315306
Sn 9.459252875569058 10.58452142276414 16.443499832064234
Sn 7.755065901877418 13.307720495143396 11.541515677178202
Sn 10.300856501469857 13.727443997391555 17.158485538382976
Sn 7.710859152613459 12.892300894863801 15.482559477950131
Sn 5.698601821823649 11.959941097183508 13.158084629458353
