54
Energy = -191.09143445 eV
Sn 10.33988486781356 6.991115684634248 12.150152899122153
Sn 9.595712105758354 7.498165498579476 15.174116391253838
Sn 13.256112274863542 7.935188867114944 11.189309559104071
Sn 8.155007750649117 8.223680361384544 9.911188285925027
Sn 11.962572904334595 9.243082851030735 14.04090931142731
Sn 7.566432584048663 8.227159598735192 12.915376502089853
Sn 11.827824121999365 9.268635588241592 17.20359754765205
Sn 15.138497903465923 8.877907627964426 13.854067457452393
Sn 11.112722739962756 8.250286682965283 9.051023936611355
Sn 14.821369040258281 9.415319889648993 17.001780405022057
Sn 14.65197715841381 8.74374116754729 8.57804630848649
Sn 10.121068849673037 10.100381474496295 11.51374877029739
Sn 13.357825455365171 11.371289469385287 19.120528039276515
Sn 17.055272834528417 11.156142842394443 15.092828356634952
Sn 8.191368363485278 10.100027668431173 15.63470579301191
Sn 16.369793923399055 11.896765146925151 18.06531959343342
Sn 16.48878999790235 10.032885060992768 10.857909366814237
Sn 12.927954724509991 10.886950539777787 10.24369656413056
Sn 10.362253957564455 12.039624416966968 8.875961456737386
Sn 18.49650892128824 12.074095797065148 11.94071751792741
Sn 7.542836308515157 11.196443914979747 9.746782196305805
Sn 10.773759625650614 11.801077319873512 15.242479609223894
Sn 5.706160282730749 10.314584388619597 13.964408457230556
Sn 9.72677557055891 11.179961214931142 18.14987721224491
Sn 18.372731564175687 11.585463265215157 8.797240075156628
Sn 12.319167268023046 10.359323116056471 7.227835244897497
Sn 14.444781496451522 11.662243407157877 13.004430709832349
Sn 8.305522331780077 11.920529338228363 13.028680262853541
Sn 17.028387799829684 14.251396282587764 7.503687189533889
Sn 5.662144081200476 12.421979725770267 11.716468751561171
Sn 13.947038310290928 12.25703158074765 16.052298872621954
Sn 15.834151437297013 13.034500958714823 10.32461628088184
Sn 15.450671113533273 11.632333700524859 7.6046626053631075
Sn 12.292439089640874 14.181242856332693 13.732671129011194
Sn 13.355385146694413 14.133505097159636 7.766848686890793
Sn 14.497864941808052 14.299630556447944 18.44729620498942
Sn 10.198559230964245 14.040448750248082 11.260919378066994
Sn 11.501856381622387 13.609682290523756 17.726242477260534
Sn 7.641352234592246 14.642154406748421 9.63167649637419
Sn 18.841082069958222 14.39832857868202 9.970382972017521
Sn 13.19718603855406 15.144010760983695 10.59223693937908
Sn 9.165185812752181 14.573014644578306 15.059282735296213
Sn 10.193652927280768 14.886728332446438 7.8015216828559275
Sn 7.343780612392541 14.954469311989547 12.60111644719477
Sn 16.45929841979312 13.801589768990135 13.829810240738407
Sn 16.407805004443066 15.79504293256248 11.382332023384098
Sn 14.580789773665026 15.384146391591699 15.553887194626615
Sn 15.092029918829144 16.61952910062504 8.568082668844124
Sn 13.573790303002292 16.974334416163682 12.971803589470113
Sn 11.667173172167677 16.240970416256122 16.185894129149524
Sn 10.175408560453587 16.990880342865488 10.032983958578257
Sn 12.29646827634377 17.140557804060705 7.422960279815569
Sn 10.379233402018432 16.655472917433336 13.175562336791327
Sn 12.958580183179823 18.303801080942076 10.223492597152381
