5
Energy = -15.18050551 eV
Sn 13.166330178018818 12.413879283270658 10.78178592071875
Sn 12.070563712959984 9.788776526691471 10.974643940174373
Sn 11.877793767104096 12.466306806426257 13.388697725009338
Sn 9.931302642899128 11.978019087802616 11.448470706036815
Sn 9.442133262091236 9.769415212815497 9.800640365708196
