55
Energy = -195.22901211 eV
Sn 9.463810035021746 8.610317407505196 5.583074478754324
Sn 14.009047057328129 7.116863765902101 11.15987979758527
Sn 10.903434567987105 7.53676661692248 10.643188071480363
Sn 10.372993907671084 10.27959522616743 8.510895298634749
Sn 8.530082262742654 13.078177089185065 8.340548824505857
Sn 11.404954328514078 13.307068496997806 7.194843042920679
Sn 9.392647314363641 11.718829739088513 5.473476147756607
Sn 7.801024165609105 12.486304807363641 14.12041659839609
Sn 14.31868675465966 11.39269700574753 14.196986487613207
Sn 13.475339235209972 14.802461823354678 10.374578760890397
Sn 15.470726090903712 12.294201895451234 11.214020168008703
Sn 12.952005634299848 8.524460707384709 13.803175317498583
Sn 7.294491891060514 10.23919885979955 7.28652279245362
Sn 9.614888856650055 9.613527747798278 16.652332634653042
Sn 7.296943724274409 9.530212341450598 14.338682154428163
Sn 18.51312744207389 11.421051806443092 11.24925029704452
Sn 14.617682757397352 17.23129927175902 11.923158653775886
Sn 16.5680228972837 11.156564884998488 8.491681532930269
Sn 9.946623033476879 13.683229169934549 11.601444739353788
Sn 6.110168789576377 15.074301279451625 14.043536670147613
Sn 8.567191803328523 7.643520999365833 8.418535748126589
Sn 13.247999597334047 16.75752455767916 14.660718466750335
Sn 12.160203942228987 10.151725039309182 5.943350483295679
Sn 17.22441582032676 10.26676548904977 13.768607070110411
Sn 15.784459633871748 14.173801398957448 8.16413864725971
Sn 16.693370568074503 15.419874346698617 10.694884261785592
Sn 10.44064474489649 15.6718309423974 9.356404997215225
Sn 12.627198028357176 13.992285349944948 13.296716826934135
Sn 11.015654680570009 11.91923650171032 15.00860435402949
Sn 16.10897935691379 10.509850352909721 16.68697651264729
Sn 15.989248746951661 7.429785985962851 13.480410999434632
Sn 7.695783570755408 10.84437995413782 10.43785545397855
Sn 9.604448078450751 12.615279967481197 17.72944634736857
Sn 7.143979017698497 14.188375341358807 16.812033503706832
Sn 10.094813476869552 10.356514255354384 12.29456360529557
Sn 14.429860242219696 8.746527125211513 8.506714253204043
Sn 6.79982432994342 13.634660329317613 11.386948991275725
Sn 13.500444268905419 11.735287664894276 8.564012500916022
Sn 17.53076344569665 13.683739028888965 12.993047249463887
Sn 7.917228078934493 7.907879032829791 11.544480202863841
Sn 14.74850889362243 7.823485847303793 16.28591156843572
Sn 9.891761177921195 7.810991714052004 14.050660900673229
Sn 12.867789509809171 10.043595487183717 16.890737816471898
Sn 12.736042646954633 17.899580063527083 9.703948277284605
Sn 11.256449915763916 16.89709899344875 12.242083517972725
Sn 8.18855286921924 16.339577245795944 11.96828423538182
Sn 14.100538588293421 12.798457300498546 17.049767351739675
Sn 9.322257996425853 15.070577369540914 14.59167536535607
Sn 13.27060242672265 15.808325095586 7.477914694802894
Sn 11.667429565453542 14.62787711628469 16.535060529364774
Sn 11.580244658809935 7.422823751679158 7.534491901530743
Sn 16.696776509833114 8.927719689350987 10.919573776547189
Sn 12.861873581873738 10.048367203433852 11.053617283816308
Sn 15.286447661093934 14.525075062765165 14.861700484747331
Sn 6.873506874813295 11.192469508426447 16.86642440642282
