5
Energy = -12.36356144 eV
Sn 12.996900594724066 14.4280227348035 12.594833580728833
Sn 10.988344319183199 12.386740685160134 11.194191679909213
Sn 9.921292801626942 13.91232705696408 13.192647103293735
Sn 10.9604045505506 9.387593300985918 10.747321794521627
Sn 12.699228705290189 7.451763174740234 9.83734401729846
