53
Energy = -187.99201167 eV
Sn 12.877828052689543 11.608964700326375 7.5250119548711165
Sn 14.934765355856735 9.132403791753436 7.4086888215532705
Sn 11.779831773594747 8.683878288414004 7.85985226880258
Sn 9.758612379521923 13.870597878238204 9.1178124023807
Sn 8.469675718414255 11.288179009871396 8.094050838446119
Sn 13.638311840245645 6.237554020808651 8.267098447967118
Sn 15.866005690079165 12.158618133590533 8.08494292180467
Sn 16.608289567019863 6.885033731402248 8.825161253571567
Sn 13.031787720702342 14.992752472773978 8.93589706135021
Sn 17.444485947224152 9.932746786997866 9.482044631557972
Sn 8.55245074285398 16.673608403086206 10.073878653858035
Sn 11.61742941245736 17.691143954882467 9.742080544000979
Sn 15.964023682300839 14.57437048204434 9.994692994063403
Sn 11.142662066636005 11.1788476305978 9.864982764803967
Sn 7.069009994746564 13.003566897232629 10.372817846633037
Sn 11.669261022567841 6.6747328165787305 10.632844210913522
Sn 14.147496070546431 8.645459494533634 10.442681058166848
Sn 9.149493017803325 8.671763562154311 9.874765865767143
Sn 14.69832190086596 17.324484635295647 10.536986458300976
Sn 6.374263630487659 10.005532790531655 9.962631733932279
Sn 9.75416582115531 13.069408952000003 12.03558074112388
Sn 14.851253792011311 5.7615045607596596 11.329143961725817
Sn 14.621827690736511 11.68998376142388 10.881712175840219
Sn 17.186064306465497 7.80805343180403 11.789728905874584
Sn 17.426734378554016 11.152244121258185 12.266903288622746
Sn 9.531306883025417 19.392802613871503 11.450648104668346
Sn 7.641549212460838 17.182953039004985 12.923824514198884
Sn 8.018443641726897 10.652797053472282 12.366981878177272
Sn 13.269365198133443 14.38755974665256 11.79089894153441
Sn 10.571885157150152 16.284040435821897 12.322301104649599
Sn 12.49306275352642 18.769285210528974 12.568027692289306
Sn 7.379681354579344 13.957348797218183 13.739631942106554
Sn 14.241789514475583 9.63808814307145 13.955075339385951
Sn 10.98776880873853 9.423954686324056 12.217562476367867
Sn 9.9676088800604 18.621478102900852 14.384923170824527
Sn 14.570746090738236 16.497917667682664 13.475495610322273
Sn 12.282615245240244 12.074965235801457 13.76934018940793
Sn 7.21326980918101 11.221673627624737 15.172976428590927
Sn 16.073361252453477 13.797949151616988 13.07531092966558
Sn 11.506368976226549 14.947784516459604 14.911632768376151
Sn 15.538186962846954 6.731306206479466 14.212760652025954
Sn 17.205311801552817 9.295001608693841 14.677979588193848
Sn 12.516127012288207 7.05989026569337 13.759983879099293
Sn 8.513528982100313 16.070996311479224 15.94240902940698
Sn 11.152420195802945 17.248255174062333 17.00218633482051
Sn 10.272386176659953 10.020165404716689 15.131871370225808
Sn 13.906540344884625 15.963101973292698 16.43514186076978
Sn 14.569788063281129 13.063351022615329 15.66072949656949
Sn 9.398279818073158 13.092296208907424 16.06816429880584
Sn 12.747381666811608 8.607892307479812 16.550254124928795
Sn 15.260674772359842 10.301795989077288 16.85078962273915
Sn 12.251877153708213 11.653825469461543 17.003645023408282
Sn 11.233164708744125 14.274631733995031 18.12600383487486
