55
Energy = -190.40350967 eV
Sn 5.50624335063056E-8 5.50624335063056E-8 5.50624335063056E-8
Sn 5.50624335063056E-8 1.7287342872252496 2.795323147166444
Sn 5.50624335063056E-8 1.7287342872252496 26.08308820585037
Sn 5.50624335063056E-8 27.14967782289941 2.795323147166444
Sn 5.50624335063056E-8 27.14967782289941 26.08308820585037
Sn 1.7287342872252496 2.795323147166444 5.50624335063056E-8
Sn 27.14967782289941 2.795323147166444 5.50624335063056E-8
Sn 1.7287342872252496 26.08308820585037 5.50624335063056E-8
Sn 27.14967782289941 26.08308820585037 5.50624335063056E-8
Sn 2.795323147166444 5.50624335063056E-8 1.7287342872252496
Sn 2.795323147166444 5.50624335063056E-8 27.14967782289941
Sn 26.08308820585037 5.50624335063056E-8 1.7287342872252496
Sn 26.08308820585037 5.50624335063056E-8 27.14967782289941
Sn 23.41517964365736 5.50624335063056E-8 25.587699366995466
Sn 5.50624335063056E-8 3.2907135002374552 5.463232466467712
Sn 5.50624335063056E-8 3.2907135002374552 23.41517964365736
Sn 5.50624335063056E-8 25.587699366995466 5.463232466467712
Sn 5.50624335063056E-8 25.587699366995466 23.41517964365736
Sn 3.2907135002374552 5.463232466467712 5.50624335063056E-8
Sn 25.587699366995466 5.463232466467712 5.50624335063056E-8
Sn 3.2907135002374552 23.41517964365736 5.50624335063056E-8
Sn 25.587699366995466 23.41517964365736 5.50624335063056E-8
Sn 5.463232466467712 5.50624335063056E-8 3.2907135002374552
Sn 5.463232466467712 5.50624335063056E-8 25.587699366995466
Sn 23.41517964365736 5.50624335063056E-8 3.2907135002374552
Sn 5.50624335063056E-8 5.5286020129952 5.50624335063056E-8
Sn 5.50624335063056E-8 23.349810097129666 5.50624335063056E-8
Sn 23.349810097129666 5.50624335063056E-8 5.50624335063056E-8
Sn 5.5286020129952 5.50624335063056E-8 5.50624335063056E-8
Sn 5.50624335063056E-8 5.50624335063056E-8 23.349810097129666
Sn 5.50624335063056E-8 5.50624335063056E-8 5.5286020129952
Sn 1.6978855130742552 24.443348453925193 2.688433207934927
Sn 27.1805265970502 24.443348453925193 2.688433207934927
Sn 1.6978855130742552 24.443348453925193 26.189978902189736
Sn 27.1805265970502 24.443348453925193 26.189978902189736
Sn 4.435062899091621 26.189978902189736 27.1805265970502
Sn 4.435062899091621 26.189978902189736 1.6978855130742552
Sn 24.443348453925193 26.189978902189736 27.1805265970502
Sn 24.443348453925193 26.189978902189736 1.6978855130742552
Sn 1.6978855130742552 4.435062899091621 26.189978902189736
Sn 1.6978855130742552 4.435062899091621 2.688433207934927
Sn 27.1805265970502 4.435062899091621 26.189978902189736
Sn 27.1805265970502 4.435062899091621 2.688433207934927
Sn 26.189978902189736 1.6978855130742552 24.443348453925193
Sn 2.688433207934927 1.6978855130742552 24.443348453925193
Sn 26.189978902189736 27.1805265970502 24.443348453925193
Sn 2.688433207934927 27.1805265970502 24.443348453925193
Sn 24.443348453925193 2.688433207934927 1.6978855130742552
Sn 24.443348453925193 2.688433207934927 27.1805265970502
Sn 26.189978902189736 27.1805265970502 4.435062899091621
Sn 2.688433207934927 27.1805265970502 4.435062899091621
Sn 2.688433207934927 1.6978855130742552 4.435062899091621
Sn 26.189978902189736 1.6978855130742552 4.435062899091621
Sn 4.435062899091621 2.688433207934927 27.1805265970502
Sn 4.435062899091621 2.688433207934927 1.6978855130742552
