5
Energy = -11.59850854 eV
Sn 15.232445926602498 11.917184738718452 10.881079575524078
Sn 14.297458827270008 12.823300679296082 13.353969436475372
Sn 13.656382317985294 18.02205493391632 18.00962112991515
Sn 10.82293306179667 17.69808751198683 17.77093483846645
Sn 12.280543155782675 16.15268725951608 1.4444792432554663
