55
Energy = -193.9581943 eV
Sn 13.373913949024466 14.040830634390794 13.926553360838769
Sn 8.337476515394437 9.09671063009269 12.505430172622779
Sn 13.908446067104588 8.136441090655694 15.917661623958866
Sn 7.390780659182762 13.519139433424863 15.134790834062317
Sn 13.777540483037251 12.544973494808525 11.162333457361349
Sn 14.76769849093133 11.937304954378531 15.733840254945052
Sn 13.005885155441558 17.263863238060626 13.585393694111453
Sn 13.535992499768197 15.376403459121061 10.113221060891927
Sn 15.63082422059544 17.52250675100488 15.800020323680668
Sn 13.76419314966908 9.935362374945079 13.14603328227925
Sn 13.261750098147582 8.05507070320324 10.852113869371667
Sn 11.360757326242183 13.72852234011149 17.56616222650638
Sn 7.7274009168584135 10.408845559556182 15.349537826760676
Sn 16.352782725144035 14.394654481548283 9.925484976916323
Sn 8.568511809200483 12.566274151084848 17.732822030130844
Sn 12.232207578599873 7.030506173135716 13.633448896766968
Sn 16.38566164000443 11.267063435102523 10.242896683271445
Sn 16.631054826048775 9.74292227411435 14.490843218505038
Sn 10.432229140957018 12.84829865562086 14.871496604793117
Sn 7.577762769818618 13.416012756934904 9.540124114619612
Sn 16.708811694037646 6.978619671106944 15.995285436743652
Sn 10.392690728819687 15.633814981837538 13.197640330407296
Sn 8.403806578141458 10.136415899025177 9.43667614783924
Sn 13.055811069628527 15.983448132230942 16.407170891901842
Sn 10.833728018762296 9.810858673361945 14.079518189452598
Sn 11.823300971850156 12.712697114697372 8.250279471100288
Sn 16.679721852959542 14.573272748329792 15.857434540294529
Sn 16.442441175199853 13.01943428092135 13.02856301052293
Sn 16.44240205381789 12.513645059795605 7.481666481220441
Sn 8.998207235882408 12.147025082114936 6.968688004495893
Sn 15.71922471308247 15.983897584349007 13.073354760007433
Sn 11.38280514623578 16.15412164498497 7.685844947184321
Sn 8.510938085877328 15.083875805756396 6.798832685737195
Sn 15.372876239792 7.094118709004183 13.318891246112287
Sn 8.706286521951744 16.25167516767965 9.636722962866404
Sn 8.56947945167201 9.382107405126936 5.979505065270132
Sn 10.359820573891017 13.769021550166185 10.874828913889324
Sn 11.062544316996014 8.80799455457855 7.968684344081912
Sn 11.182630651341213 13.864750514631472 5.333891863796993
Sn 11.334499181844087 17.342431744331957 10.7123746822911
Sn 8.363694771710334 7.373527327220141 8.223487848969901
Sn 11.252185637402283 10.643082640788137 5.345788032254599
Sn 11.114690247071735 10.392475819577843 10.750905168254734
Sn 14.254890739813206 14.758144173248965 7.183763228188558
Sn 13.939027177120332 12.062138319645278 5.677772584320841
Sn 10.168930982457724 7.286929671607365 10.743354186636898
Sn 13.944464446550432 10.516815520490825 8.452666802450787
Sn 16.194475981187797 12.73854957680312 18.381070133713138
Sn 8.363347161380693 12.127256251739267 12.590474671168758
Sn 10.379553567868866 10.28960861484919 16.993935392740173
Sn 15.394028457061683 15.904144162563918 18.356674175374003
Sn 7.506849464186352 15.221672558872692 12.454049878709975
Sn 13.593152854806789 13.723349441785118 19.653918176338436
Sn 16.08023502620322 9.545877916658876 17.58261493873944
Sn 13.236133487743656 11.132051374340119 18.084018580047633
