50
Energy = -176.79238694 eV
Sn 13.084013941319737 11.261758377041778 6.947015724699957
Sn 10.197972405592772 11.597766605357258 6.248725757373693
Sn 11.671060251975337 8.319167768273658 7.078127942482966
Sn 12.63668634030439 14.298972064082824 7.641703084480777
Sn 7.0695273591832155 10.800430538411163 7.9018896939951
Sn 8.796823231234868 8.897546462255319 6.161723523495437
Sn 14.3308340065697 6.067063042868959 8.090576417186265
Sn 14.484364108907908 8.710048558896535 6.065134626887795
Sn 9.793604796083773 13.218218048276084 8.730992304651254
Sn 15.65045033443669 12.339362022283213 8.251480150617756
Sn 8.625204507327018 8.103325734172243 9.12633367213884
Sn 11.26515372111266 5.7179116251453115 8.68894701026359
Sn 10.816443658379812 10.381159606340958 9.250401189642087
Sn 14.864736836553876 14.995796168718476 9.769512123699137
Sn 12.733717716978203 17.022155780937904 8.996960598050222
Sn 10.35665922547568 16.4715319330694 10.784223000106792
Sn 7.094450632096898 14.17983401842982 9.911082637170512
Sn 7.869793137509979 10.844239261632909 10.925417442699759
Sn 4.901549380327297 11.733165352699858 9.947021977313259
Sn 12.075650827191527 13.963598868596566 10.723604105047006
Sn 12.9787361364791 7.993603509857392 10.26011416954192
Sn 5.601296557980291 8.672127527993624 9.721569360553197
Sn 15.636648636595654 8.95412219020804 8.886978646266853
Sn 13.337569460051391 4.616685657808642 10.746067686134534
Sn 15.992263994526597 6.413322142956352 10.677374600036348
Sn 5.3791098186940145 9.99731468527322 12.592840444326905
Sn 13.679711946704076 11.102032109012198 10.294090893762815
Sn 15.253803132566896 9.548055357639864 12.384188233215498
Sn 16.369528108394096 12.387398718444677 11.24306588858777
Sn 9.092616943518095 13.514293707749124 12.561832433202605
Sn 10.875260398346574 6.375535374651439 11.73115618603982
Sn 15.603069830260987 14.953110596263219 12.777051287469654
Sn 13.109108432259648 16.683710621750592 12.262282698063514
Sn 7.649100735099028 16.258847209863934 12.085441143254199
Sn 7.5378322419881005 7.7502028055326955 11.987982586131364
Sn 10.508239661964401 9.550852861827927 12.579752153276392
Sn 13.906987416112027 6.728783292709506 12.99590165849931
Sn 5.826129395419492 13.206837009549723 12.590624031701614
Sn 12.071728948033558 12.209844028282346 13.486964923272046
Sn 11.244354416406244 7.56365771881728 14.741323747171345
Sn 15.063503171824971 12.24828553105957 14.22657078915505
Sn 7.509335169115289 15.100219392122407 14.979810648535354
Sn 13.05614334421641 14.878674798767848 14.900176047595359
Sn 8.302427629468099 9.0108410412548 14.729777101203275
Sn 13.533764014812206 9.567298925606092 15.052142087429575
Sn 10.272768541269613 16.295664817588303 14.036644183591434
Sn 7.519957485205627 12.024835024415879 14.876691899816123
Sn 10.599472723407512 10.695050929145657 15.843378270671813
Sn 10.214532431536052 13.723181189967756 16.031310876380406
Sn 13.159174973844229 12.25543150105073 16.678894457772607
