54
Energy = -191.49852773 eV
Sn 12.11854388524533 15.946065554157668 11.168464012755985
Sn 13.594653547878588 16.029560968239668 13.922529872618707
Sn 11.388259965624922 15.674157338955164 8.022355247850733
Sn 7.980717824232851 11.750911454318938 14.36522069255921
Sn 8.429999926313542 13.871137940464381 16.534612806971527
Sn 9.743755874446105 13.711661509326968 9.749055446970258
Sn 13.336405304036642 7.00188328694102 6.2538939781556016
Sn 7.880546182246691 12.116063841503825 7.678837578091178
Sn 8.240950883990577 10.721144145017792 10.756293153056694
Sn 10.074054828938012 12.968536112626394 12.581611249943135
Sn 8.259834371303933 5.96746550971307 7.136713550216675
Sn 10.057396221706403 10.659515079210216 16.2097595506397
Sn 7.073691545976949 8.733098233155904 6.383250850884941
Sn 11.702528259362035 7.657876780895546 10.512504525233135
Sn 11.132256292496646 5.882884648238265 8.05514946857302
Sn 5.269155262265938 11.540253221766331 11.340853927834305
Sn 15.747060340540628 6.593609447799685 12.315286860807596
Sn 13.67383211941376 9.095460892979416 8.429964637859927
Sn 15.725863325607351 11.367409035431331 8.969195980118274
Sn 15.109203035994895 13.4282596379161 14.772308273920723
Sn 12.344616319521466 11.273449797409514 10.074179494798791
Sn 11.275658365323 10.129766935283763 13.146719422260652
Sn 13.013801966902493 8.502388718235542 16.407446880722958
Sn 10.825740377883639 15.00769785664751 14.676898909503286
Sn 5.771352760205215 10.092275581192588 8.77219154130554
Sn 12.93235442084156 7.476787741329076 13.508853602003285
Sn 14.706685716271805 9.749600822841385 12.047024119707201
Sn 13.129905174706622 5.084968165375278 11.729330364117358
Sn 8.971928289959937 14.767157848795101 6.220170928498134
Sn 9.7810925872807 8.825657932585546 8.252027878918422
Sn 6.674120935133184 14.409058669760954 13.778621357097203
Sn 13.174727350069679 13.321065921890433 12.395084259969467
Sn 8.962036874988682 7.966296099964841 12.125053719002059
Sn 14.241168122206783 6.15408824105193 9.13018918097859
Sn 10.121475316461757 7.860885066650729 15.05830129913524
Sn 6.526891024715712 9.534933206681089 13.148982083283238
Sn 13.076952422308253 11.266068499631551 15.294417860637688
Sn 8.298944528316037 16.625305463528875 15.020666188516277
Sn 6.311955867744551 14.716735616695953 7.6941616101774395
Sn 16.44343845567578 8.316552946956373 9.85220448560863
Sn 6.891677682964393 14.107029410850432 10.663700736300244
Sn 15.648500255862231 8.079890996862964 14.980138856972069
Sn 17.789578470503475 10.73739889024001 11.283136570047345
Sn 8.544226765748848 16.542164766273878 8.796817128384228
Sn 9.048059822877773 16.06429268355974 12.130543782704772
Sn 11.43288176298559 13.226049346976898 17.016952995465775
Sn 9.418254619240425 10.513120823716427 5.523649255303997
Sn 11.015666193489047 12.517807496824547 7.307531164290853
Sn 15.3062391095022 16.006939442000544 11.257059291354244
Sn 16.648479546873684 10.799482792457452 14.133608971809995
Sn 14.001033919490174 13.952408713513657 9.387428628778954
Sn 16.23199408350357 13.24210795790961 11.773240007714211
Sn 10.397554805175426 7.566362639471318 5.491191093742479
Sn 7.248584800561691 7.593535981093288 9.510902378745794
