6
Energy = -19.90949318 eV
Sn 9.144291878975238 9.459214614736585 11.361794547397718
Sn 11.466809616040182 11.266713221985517 11.446223243144676
Sn 10.910359059403296 10.549428754495333 8.656684253741755
Sn 8.628206796575638 11.937668302014243 9.879975822582235
Sn 11.509961935540924 8.158943246738808 10.23797473371153
Sn 8.581569155736803 8.80470879125935 8.571446195700876
