6
Energy = -19.91066178 eV
Sn 7.1737125272629525 7.628574992545044 8.7663668425178
Sn 8.314712810641195 9.448519903884751 10.758438021677197
Sn 9.963270755760625 9.547236427895125 8.33183214541565
Sn 8.870362789709521 7.652007585207973 6.389770933864388
Sn 9.910777335978123 6.845435351183861 9.480218581323875
Sn 7.224136952872239 10.348929793912994 7.710196260013672
