6
Energy = -18.36170784 eV
Sn 9.456214349596753 8.761825929835277 9.5705751761639
Sn 9.727629703771374 9.052888233199594 12.512350144130322
Sn 9.737951957889912 8.340499725439741 6.861371874421519
Sn 10.236364913097548 11.415328677914825 10.636292912749646
Sn 10.019967693572543 11.813458489335828 13.354906913099752
Sn 11.002363739069642 10.762220012439952 7.847826852160112
