6
Energy = -19.90774379 eV
Sn 9.015128103950355 11.57485794763028 9.003061298105957
Sn 11.003186031359725 9.438725130484105 9.210156607884322
Sn 9.94237154001013 11.443501987169014 11.764533029014324
Sn 12.23854233480246 11.956022199585364 10.020498530365947
Sn 8.758231545767213 8.873170814392983 11.001383206300849
Sn 11.889357618606363 9.265959003563461 12.007004740257846
