6
Energy = -19.90874153 eV
Sn 10.511604730774042 10.923752820684925 8.76240540223327
Sn 9.240835899135178 8.496253139315508 7.740848684473693
Sn 8.995274967311554 8.511281981518302 10.65045806557176
Sn 11.833171060424194 8.599496682315829 9.942068552085368
Sn 7.685952522520118 10.888282522402342 9.534254368859868
Sn 10.214660138125298 10.977474527296666 11.682232105466996
