6
Energy = -19.32164252 eV
Sn 12.122741197922567 14.122580490666039 11.47354793388986
Sn 13.486050926154615 11.609336666953524 10.729202968318539
Sn 12.467313775528979 9.562241575808107 12.532584346753598
Sn 10.41383754288303 11.70371969265954 11.217006229316935
Sn 10.175440862017597 8.929174532659447 10.886263480380501
Sn 12.156133735364257 12.187226091156498 13.713566734658128
