6
Energy = -19.91419833 eV
Sn 9.867826185359977 11.170687237845822 10.374948251608387
Sn 10.35312527017628 7.870452531097235 10.798863589799272
Sn 10.634526104674629 9.30566129890713 8.258861603800494
Sn 8.571748221280401 7.2403944592952705 8.04199109286376
Sn 8.067660232975557 10.53789505719043 7.593592276954724
Sn 7.78948921978733 9.127431763196874 10.139655624932638
