6
Energy = -19.91154702 eV
Sn 11.043247120262208 10.414090629131598 8.136320815283494
Sn 8.097820163792946 11.372952918026929 9.472915365037302
Sn 10.516144154895306 7.289387293831515 9.1109366758536
Sn 10.0597690951283 9.650334849657835 10.790625167128518
Sn 7.5701417620535025 8.151534599764894 10.459601247082908
Sn 8.501923853352055 8.990939120406555 7.819805807377159
