6
Energy = -18.34392594 eV
Sn 13.106447123110065 11.991550994876546 11.686536280660382
Sn 13.009368213432834 14.467116944542818 13.045630798503167
Sn 12.066771047239795 -0.13254699116637672 13.425854488395824
Sn 13.82848472418327 11.80658019243965 14.43224744984033
Sn 12.853360169573316 15.807572159025773 15.849570943219726
Sn 11.646667526369233 13.208617889873548 15.651121455327514
