7
Energy = -21.75730237 eV
Sn 10.66456368579078 9.275809750378157 11.235316659164972
Sn 12.542217338646951 7.325200184164327 10.476744394453396
Sn 13.726948359669846 9.80784802672216 11.032656780806098
Sn 11.204857330451631 16.328826055903047 13.270146633432422
Sn 11.699108326410089 13.677599456687933 14.06050715660926
Sn 11.364890430345142 14.565991157911858 11.089109404643887
Sn 11.844666150219647 11.829891877397717 11.85331294848788
