7
Energy = -23.05722455 eV
Sn 8.747714870719479 12.302671035880195 10.555553848978835
Sn 11.76879054254848 11.318337954990366 9.383912561836881
Sn 9.131995400207305 10.155261349379352 8.570188070807196
Sn 10.076459544999935 9.766213789241396 11.561822808400638
Sn 11.357205630337184 12.545628727532183 11.963102399660329
Sn 11.849989282532208 8.373917635729972 9.529036054229932
Sn 9.009650788013193 7.522166946998531 9.74270301271068
