7
Energy = -19.35957645 eV
Sn 6.9338578438606016 9.157469330518744 9.126755773430581
Sn 11.244832431986167 10.930119647743357 13.733770791729421
Sn 13.353933340754685 10.22604732537833 12.04258253087502
Sn 9.9707158728712 10.991409720701979 11.354843031618389
Sn 13.865010946950468 13.187473959871797 11.974981682528126
Sn 9.513789302999585 9.686643561405132 9.062118918765572
Sn 12.093905162155847 12.266755194900757 9.951231554849956
