7
Energy = -21.12620477 eV
Sn 10.824939309874503 10.964900466216726 14.13627730006621
Sn 11.167734442278665 9.656459378851086 11.384784154345654
Sn 8.696685648414265 9.304780580934219 12.997346672758644
Sn 13.501169475534889 12.989397673140274 10.072165762459175
Sn 11.010951312366014 11.462654692692745 9.05885572049503
Sn 13.092168781720387 12.344250941594142 7.328013564604046
Sn 11.286951839520743 12.704437380558677 11.90214003222379
