7
Energy = -23.02483807 eV
Sn 8.273678698022504 11.193433411713185 10.59279523888908
Sn 10.060728990903494 8.330161196498445 10.254266864178065
Sn 9.760245491868668 13.351103050591112 9.553649093229412
Sn 12.538382743376829 8.906455413895392 9.036872975418643
Sn 11.27205209107747 10.949195425111512 11.478639420292048
Sn 10.80564749999331 11.021865749419486 8.376272462935432
Sn 8.362688620594138 9.02758183933451 12.3800992637109
