7
Energy = -24.05738439 eV
Sn 11.938133246308567 8.276207441961466 10.48253423789254
Sn 11.681400656193304 11.182914387065592 9.574272239673288
Sn 8.717041352937416 11.889176114260474 9.457830957751568
Sn 12.415068839362561 10.553759929618463 12.458806467309705
Sn 10.410261196420613 12.776844902428454 11.840723818691652
Sn 9.667369541711704 9.110560035934167 8.614762052296081
Sn 9.574986235991005 9.857559141254775 11.566956838449773
