8
Energy = -26.98020479 eV
Sn 10.764642497489602 10.878766768729728 9.165432646477328
Sn 11.42749923832882 8.35316822532689 10.821655692418453
Sn 11.954977022066075 10.79808594935276 12.440026070622793
Sn 9.472358377568767 13.125037842740864 10.951097894115787
Sn 9.03641733391489 10.146756957870856 11.723071458756507
Sn 10.513320424729672 12.925310328160176 13.626107844211415
Sn 12.545411179418494 13.131723999700393 10.522308786717664
Sn 13.657762643119296 10.24576133628158 10.058021123489839
