8
Energy = -25.86840456 eV
Sn 10.910607627278377 10.73216620686278 13.607182808149398
Sn 8.566265359549357 7.32340788668935 11.233467917868575
Sn 10.2140802764498 9.584586016271748 10.849197103120312
Sn 12.945388237057342 10.853907736973063 11.309055216575118
Sn 10.14320636867502 12.584495300045898 11.265175783851939
Sn 12.484175940179885 13.296116840734157 13.101664186330364
Sn 12.730953073566772 13.627267293012302 10.060163165874794
Sn 11.341673241871788 11.305707823699976 8.676771520648776
