8
Energy = -25.77454927 eV
Sn 8.403315055910298 12.691313547208912 10.793032227620992
Sn 10.092304436431638 13.13159088438052 8.341581091770339
Sn 13.103812919520806 10.85892651576673 11.044899306820946
Sn 13.986795100130221 8.378918445034266 12.168266809902018
Sn 11.096067238077204 8.816215903305997 12.400976435398062
Sn 10.31678805643033 10.493583838686769 9.847857731427808
Sn 11.560595061239109 13.395218474177778 10.874694632469348
Sn 10.188394397426501 11.600554066347136 12.853581315012985
