8
Energy = -26.3373349 eV
Sn 8.468336119192035 11.979878926270983 11.66606622679116
Sn 12.940035504205909 9.648644492640681 10.43294947067784
Sn 12.267539969896132 11.174751044248826 8.090333514074786
Sn 10.958555591527864 7.874200359545206 11.636127581650815
Sn 10.5638781945688 13.651762987677436 12.901255801591248
Sn 10.934530353240499 10.573740713173418 12.723455014072458
Sn 9.843518100677246 9.950924326008492 9.765545940429242
Sn 11.589927933371872 12.681843586865119 10.447045507107905
