8
Energy = -26.79196715 eV
Sn 8.643362063427395 13.421987705075335 10.988147525905815
Sn 10.512448049800478 11.880376912356448 9.5443263724075
Sn 11.256609828906528 9.555090643026343 12.1335398043301
Sn 8.502422629514435 10.425213410594182 11.428270943330904
Sn 13.030014413360329 7.944928169146333 10.640809369714082
Sn 11.093306905638716 12.483998538389375 12.535146704241344
Sn 13.243312775753509 10.950815658414445 10.20816432701737
Sn 10.57924909874841 8.938755707868802 9.165161227322496
