9
Energy = -30.3134527 eV
Sn 9.585751888595675 10.132621760243069 11.722147851188586
Sn 12.556217680993925 9.763239939907848 10.197810210653792
Sn 10.03096344783194 10.97233170949946 8.53686671957735
Sn 9.817768016664502 8.11069624092698 9.227778524543321
Sn 11.52136953909269 12.61145431534218 11.035852160318836
Sn 7.41489717474492 10.481725308455246 9.665446974243709
Sn 12.110564160101909 10.612101201847375 13.067160148992604
Sn 7.712005744742037 7.947429308381698 11.237522055959973
Sn 12.633552497435863 12.175233930829075 8.350110278917354
