9
Energy = -30.41688705 eV
Sn 11.827638579612739 9.940965626093462 12.474199821635775
Sn 8.068056542960083 11.730463888978939 8.532090674204442
Sn 12.349392991438716 9.514857482279625 9.51366733429444
Sn 11.081199269763438 11.596494503712615 7.79627304328994
Sn 10.2954591863189 11.652085976414401 10.706653301648675
Sn 10.085617791023623 8.036344735865075 11.207614606180826
Sn 9.449385333405859 9.045619614053637 8.18660807334149
Sn 7.552522300188253 9.880537319833225 10.757522399178894
Sn 7.766841096663712 7.188126204663198 9.576864967886774
