9
Energy = -31.09363099 eV
Sn 10.717904445848234 13.250547030650326 12.826897022812945
Sn 12.682561627335245 8.668572912167116 12.076580742242081
Sn 12.395733345117764 10.018451017781729 9.274577078553486
Sn 10.333739090310411 7.940679833036686 10.388022976165427
Sn 9.315780018565121 10.514842696305072 8.91912664961567
Sn 13.246911105342209 11.73595452259673 11.767365628966129
Sn 10.30651820237199 10.444492356088208 11.977999210726596
Sn 11.15878352580211 12.92553829728105 9.748186346180953
Sn 8.377586239996152 12.534883001072544 11.119909246008495
