9
Energy = -29.99471254 eV
Sn 9.592503846657666 12.872819258333553 10.291003133705642
Sn 12.067700738020811 11.940982585595775 8.544900632333212
Sn 9.664899934957567 10.22925261006452 8.861349636064498
Sn 11.696647975378815 10.370405644953063 11.032162323202733
Sn 12.457290340442414 13.825160131934023 10.798002104426322
Sn 13.852919091342114 11.804574769330864 12.660049839706348
Sn 10.6200270541436 12.27451112248075 13.162334551306932
Sn 12.384864707716355 11.759697123708408 15.324687103614528
Sn 12.103875827154758 9.32761334705081 13.63927509619056
