9
Energy = -31.09334874 eV
Sn 9.04243610413939 10.866143355042059 9.180665588420828
Sn 9.512934762706678 9.403178498895345 11.923550462332816
Sn 10.879650726352278 13.394395992868022 9.082373861208195
Sn 12.08370481895762 10.93920951984808 10.223143584612403
Sn 10.919956337347346 8.358210376348685 9.339247240890264
Sn 12.46494540960344 13.528695008544235 11.608711010879514
Sn 9.48654209596398 12.597432653777451 11.764242980748797
Sn 12.509907448456167 8.504211065348846 11.860744110868156
Sn 11.693958027272888 11.09392487933021 13.418128226386916
