9
Energy = -29.42185709 eV
Sn 13.156469309646873 8.084907483040912 14.028525937340072
Sn 12.78302097076352 9.617548927615394 11.7258674556314
Sn 13.66650975977542 12.607049503478077 12.37226463173638
Sn 12.224647767578542 10.800900805065364 14.474050115147476
Sn 12.563509717253996 11.394174356007571 9.452384763422659
Sn 11.31154336615171 16.66409482163235 11.156830592640434
Sn 11.39285956275142 14.60240481286734 13.200606310461652
Sn 10.528316323948333 11.842583959307925 12.101832995868886
Sn 11.832448560112923 14.080584860880391 10.235869744997801
