11
Energy = -22.16234983 eV
In 8.778741487843464 8.713724226407582 8.308551988371164
In 9.621998972865413 11.089139941331185 10.409440835191706
In 11.33638761743565 13.576147876035623 9.698555058017034
In 10.566838416500671 10.984885730790896 7.40910944767777
In 13.1579053580231 11.283965094775393 8.935884729939183
In 10.250244918582741 13.567400881577937 12.517154277116651
In 11.688466219747026 8.762082069419577 9.85714675051687
In 12.431809860269468 11.113828147062438 11.906098825061637
In 9.297299080242427 10.871923744361487 13.476566679566053
In 8.560684018556353 8.252984816904945 11.287883916602265
In 11.119311678245053 8.5306207605069 12.857111385372257
