10
Energy = -19.30096489 eV
In 8.847991884439155 13.1113861526579 8.814948849368504
In 7.882229619112037 10.360146304336984 10.91475289798621
In 9.669908799013559 12.697192833999855 11.767985164646113
In 11.97482689007875 12.484221473260305 9.472810150998379
In 10.406520361898837 10.061517523521083 9.16603221077133
In 12.82351211134162 13.211459428641524 12.358929019315346
In 13.581345552353493 10.140790894280252 10.637128415414457
In 11.073559588722244 10.250476238872148 12.441453249451198
In 12.005981253067779 7.589572520054912 10.441409000121423
In 9.255810828275022 7.7759516263680295 11.51628757819252
