10
Energy = -19.17418835 eV
In 11.622788872540948 9.791428823142423 9.463766702234853
In 10.095801224189508 11.637989850761926 7.733468768026292
In 11.734674235907173 12.207592801435014 11.304520147040867
In 11.17528562988308 14.44690800593014 9.197532728821708
In 12.40316887777988 7.294800727247512 10.864821193197939
In 8.983789816497104 7.2622570475272905 9.836530557582151
In 8.807468569703211 12.572736609570379 10.389419644369204
In 10.037292474494755 7.212792788952695 12.675318356839622
In 8.083050296372688 9.827447328396365 8.992220934513256
In 9.546356490428144 10.020251855450073 11.78560377278306
