13
Energy = -26.45975946 eV
In 11.894669293037259 10.523090161381228 7.972265451658874
In 12.321121874255393 8.269355450484248 9.979305345668589
In 9.779937330633025 9.945822157517476 10.184682972617306
In 9.642343272171374 12.503487960646103 8.525922904828946
In 14.61546106224785 10.751286472288808 9.702632642714486
In 12.87519540455075 13.500748839093319 8.74946339329033
In 7.0143511094254345 8.903397754055066 12.273977468199382
In 7.366028172661063 11.730470521811878 11.118665505136136
In 9.873109818627988 7.7887313749083225 12.471189942873307
In 12.125055857900154 11.831165962311243 11.334970508872722
In 9.756036613151712 13.64552592729224 11.311688486864528
In 12.539503006058343 9.27387353054302 12.81278726375346
In 9.718309034435753 10.90546786083496 13.101163743976352
