15
Energy = -31.53452019 Dir = /p/work1/plile1/GA_structures/In/15/all_candidates/543/
In 6.3480801003939415 8.72368086734166 6.810955679889332
In 8.43676068893176 7.403251607112665 4.521895691665924
In 10.703369332144304 7.494191752272207 6.8625625109365265
In 10.357563778487023 5.422331038191667 9.428887239234063
In 9.070562255624573 11.282315119896948 9.345210963081232
In 7.9274849267665415 6.5845774989198365 11.141332733475835
In 11.814664836412225 10.239685844240274 8.05803486724086
In 8.618655695009185 8.348801104973473 8.855679160156267
In 8.982603498911514 10.137124773707162 6.391417572918677
In 5.486554889669393 6.715436596459019 9.280688594451334
In 11.128014318353424 8.395742468890818 10.412291356923625
In 6.184668470717848 9.769884045771397 9.869859120972054
In 6.432440181164279 12.018148421579825 7.56192019021884
In 7.850337516266161 5.88813108830925 7.328465377367834
In 8.62328958261458 9.541747843800556 12.095849012933877
