14
Energy = -29.30720103 eV
In 8.038225976619394 12.308052087297341 10.208133136681218
In 8.656175230649936 6.262917029881403 10.02782709124225
In 6.833635443399548 9.220032722485133 11.227783417787302
In 11.779760154346935 7.643197787364559 10.087124880960415
In 9.346225845436381 9.458481888749564 9.511648985357759
In 7.077413820602681 7.654920485766436 7.943539500396661
In 6.55482712349777 10.608992379825414 8.174860584527416
In 9.668814995377726 7.856815689391222 12.37033004951246
In 9.676730470964037 10.894319761210987 12.374426343883693
In 9.088630516060864 10.009554117250211 6.4789227232334365
In 10.406018149539335 12.183432912243592 8.262184612777977
In 10.323123765294557 7.333643992263219 7.386604452775513
In 12.106002667166086 10.697381140706444 10.51890636034455
In 12.382924462413042 9.73432887611807 7.4245580634512836
