15
Energy = -31.42605756 Dir = /p/work1/plile1/GA_structures/In/15/all_candidates/769/
In 6.427290354417122 8.851982334522024 5.888128769656665
In 9.411798493026373 7.62931009856128 5.282771686883364
In 8.407318798479478 10.965006421996765 6.724178539477995
In 11.168345683371465 9.688506740326375 6.571656198037502
In 6.056059453141138 6.058878927807446 6.954402146374744
In 8.870681062957475 4.9284788096126615 6.511903499973033
In 5.233718553265725 11.577334098763192 7.44024961327026
In 8.70216487401603 7.890346730188048 8.238465671437845
In 9.719244178791739 4.936577892841666 9.318474044358762
In 5.605356099140407 8.864056618723966 8.906689280023015
In 10.817203922668648 9.657712486979756 9.530383699781062
In 6.822013994773445 6.124786776603884 9.932961855892204
In 7.805795295719825 10.862698565935167 9.654470007455338
In 10.635059453288333 7.062302916456818 11.09713622747691
In 7.908098663869567 8.49216946160749 11.538277640827848
