15
Energy = -30.83173976 eV
In 14.560486317182411 13.175481906786903 7.466707601188836
In 11.932151994715095 14.30435601082074 8.838801352071494
In 12.397200525171955 11.26063879356476 8.611096369086148
In 14.88689961758021 12.143870049109983 10.427441666869509
In 14.551988520471303 15.272607731242632 10.329186236017565
In 9.851979822332401 12.460539998311111 10.209801570335234
In 10.336540197191256 9.378722455397392 10.05607590894196
In 7.6493990579719595 10.607430932793374 11.550826471025411
In 12.397426195077283 13.606129285733841 11.815550957791936
In 8.239408371753628 7.6082960019719295 11.304597328911472
In 10.764221596679286 8.575698526845663 13.056018805649828
In 10.335020892875475 11.66689702030234 13.185911411023044
In 12.813830386394848 10.416561967419751 11.694588119587243
In 8.388111377460685 6.895247919775911 14.29202061116223
In 8.227334001721363 9.959520274502642 14.493374464917881
