14
Energy = -29.08864109 eV
In 13.72367426440677 10.706244628068754 8.861210912228266
In 10.737519447876409 10.284824160672532 10.140620178874245
In 13.220421564332035 8.36066158476743 10.680026472251068
In 11.355491969614025 12.377669820511437 7.94608186429047
In 13.279084492586648 11.28078963254907 12.330040933127277
In 8.663109102028782 10.93953070577886 7.772050270989698
In 12.178642692225683 13.621742285356605 10.814385105452704
In 8.17611020773769 8.579712597179697 9.63739630674646
In 11.442776460111029 9.127197849895225 13.347434652456737
In 10.566296496072773 6.96944568936547 10.54378196102682
In 7.42579350742279 11.573411280694254 11.099744028658746
In 8.50263010954104 9.298346502397452 12.74058645001985
In 10.188159435900364 11.957694521494432 12.608212984430285
In 9.247987951638883 13.780869583726279 10.176651420732341
