10
Energy = -19.0595593 eV
In 12.609407070143357 13.120711382048066 11.214318612191331
In 11.335631948770088 10.207297591206965 12.441509778981503
In 13.64715417382343 10.217310163394249 10.499171996945426
In 10.950561738508616 6.760324860220356 12.10878477586091
In 10.142530446749685 13.15810009824258 12.97236517706952
In 11.761431556836685 8.991116010988627 8.759967419704818
In 8.68409165452046 14.371342476469529 10.64781845058341
In 8.801872954721354 11.248421379229267 10.89188933086282
In 9.39165078912611 8.474809760491667 10.326696083827125
In 10.776802710219844 12.090620584970527 8.715926471986277
