10
Energy = -19.80137967 eV
In 7.7431922117804675 9.7456514443115 6.76784978117427
In 8.698288709847647 6.94403976728147 7.510335694700286
In 9.677213734684829 11.72132973831297 7.739783622031281
In 10.603936749189984 8.809792264195847 8.626841065047046
In 8.293719098738912 10.099211239024882 10.208052595652187
In 10.09652273200889 12.435630432007919 10.67468202291762
In 6.64148120644447 7.8141354487985994 9.57329120165922
In 12.451476637869384 10.704578080947988 10.009894774707965
In 10.75580228911473 9.014048649623904 11.888163030360616
In 9.088343787444524 6.761560092619016 11.051083368873476
