13
Energy = -26.84896018 eV
In 12.630279401081035 8.209905209239816 9.381191923965622
In 9.805601660850314 7.010402533433448 8.909414007232362
In 10.92304593779433 9.470478164686988 6.968147860934129
In 10.86918440974918 8.46018775283327 11.768937935054627
In 12.358463463999136 11.22535464044666 9.381102255502563
In 8.355574417179469 7.34792062020987 6.2373027400714145
In 8.0557410135308 10.481115037555007 6.621352365559405
In 9.469313660142456 10.102986581896644 9.482262553455222
In 10.56519514408855 11.707885356788566 11.883759499714264
In 6.891857136991761 8.402889104998449 8.816347796942043
In 7.985357593109955 7.6646150403146445 11.560514217953044
In 6.819773864945618 11.65314261839515 9.280534917381816
In 7.630296291350582 10.622801334014934 12.068815921046541
