15
Energy = -31.75190807 eV
In 14.932060092790568 10.231918849490407 8.917820017272097
In 15.823777431940371 14.146242378293657 13.34658830264818
In 15.335419014366764 11.465675707622136 11.829088996720355
In 14.504616179502719 14.32538787041367 10.46918959118803
In 13.705417044813963 10.045519464624592 13.956351748121334
In 13.411470912882251 8.69018234245343 11.059138618621322
In 13.238940418429602 16.082440963834696 13.019828286753368
In 14.480075335616677 12.659465350738527 15.588319688572774
In 12.448005525893265 11.878230410333908 10.04242549269532
In 11.337419950769 11.82471410291627 15.224551060277731
In 11.353175857521164 14.739881329378704 10.726866636752407
In 11.687335120389688 14.876520776166759 15.250394627708541
In 11.025080985105543 10.430082369555942 12.285978257620977
In 12.892969974082641 13.000867450409752 12.888335564522993
In 9.740654877335565 13.269349973577901 12.787231499371314
