15
Energy = -30.71664267 eV
In 14.75430939605414 13.061010099350101 9.492101976587108
In 14.395718202527217 12.585172993851714 12.336036206352109
In 11.96005934387922 13.310146548953384 8.677732919781773
In 13.451211940676844 10.33162325817912 9.74484317494918
In 9.041320043819928 13.310785506017556 8.400339660199101
In 13.588162939940554 11.686532655353654 15.063332362454977
In 11.33867251511089 13.049327200805019 11.659790716542323
In 11.704178596374005 8.04120702930815 8.90893142874422
In 12.734235412742303 9.905186790453268 12.54172475853398
In 10.655635888326014 11.627463035594221 14.453724443775549
In 10.010799567190606 10.500800154951499 8.95587687173274
In 8.22446955293718 12.84003179492043 11.137252592242243
In 11.109620318969611 7.536408421246364 11.684183245345027
In 7.722318828645686 11.74344644863431 13.873631521388695
In 9.4692544820317 10.03665316466831 11.781607755065215
