13
Energy = -26.46337076 eV
In 11.252964025603827 12.181850389345687 12.877963380402319
In 12.176619825152004 14.045684476979211 10.476256036195307
In 14.225392429933702 12.010946598684741 11.286629032604406
In 8.11081718540621 12.929063801244917 13.306382685000242
In 12.22821642898556 9.593933663975733 11.734627065490356
In 9.243165199687489 9.863290067309215 12.678945601930506
In 6.66569755841961 11.121440926448628 11.246339783138051
In 9.363196451155988 12.866225975906424 10.360185396981683
In 10.112944996406437 7.401068939591432 11.09361250287918
In 11.779968707987564 11.248231347878031 9.164582091880646
In 14.608834786414961 9.523560210931514 9.419265180140426
In 9.110925041202059 9.93272969689737 9.463241678049764
In 11.887015680571944 8.106747106484645 8.780560902118426
