13
Energy = -26.52185905 eV
In 12.321099285794183 11.034631607840788 10.508258038897875
In 12.133887044400808 8.132826079874587 9.780826811570252
In 13.011378671649924 8.833880748646843 12.77655496921879
In 12.727646063750168 11.983354438906787 13.512517861811762
In 10.827830753908723 10.427575788239155 7.8655850779405645
In 11.122949000042704 13.452509786672795 9.151230039941172
In 10.062747863696764 13.091537073649002 11.967278429604372
In 9.636761240678068 7.792824751917586 11.674140480275005
In 8.402482474424412 12.574618846354788 8.167950702954961
In 7.4516121927695975 9.828293826373939 7.235797820224012
In 10.095650638454812 10.212763032218266 13.350589413930008
In 9.116780057675674 10.54747480598693 10.427647146224693
In 9.282036306921963 7.841884515678647 8.582944341881523
