13
Energy = -26.25451042 eV
In 13.017937597859907 12.623069317301427 11.07197863986175
In 11.8365491830028 11.760848338949739 14.082864209242295
In 13.763218804501365 12.462702471567576 16.20666946801053
In 14.12595554579998 15.35789763085089 11.118106692415715
In 11.250716838599658 13.0838265583525 17.751683766231938
In 16.134409027545022 14.159904736108723 9.214129026350687
In 15.046708149616626 11.820309447348405 13.243637344326682
In 14.673362200710468 14.735542716136859 14.182346605484645
In 12.450731048186876 15.452864378988522 16.157041993426205
In 15.638093187397535 11.301501291427584 10.230745139266325
In 9.593465633146279 13.509134547679281 15.197390579227266
In 11.72311622973144 14.730378204084287 13.282157728421955
In 16.89795985871861 14.015414029982736 12.213570510470399
