12
Energy = -24.3218452 eV
In 8.529803661355102 8.196305134006062 7.706615127990857
In 11.644152299753195 9.423872057071204 6.87835627683772
In 9.945813928549818 10.06778176095218 9.755205447528315
In 8.413666897292941 10.856659671968696 12.64588818519274
In 8.607981001107794 6.295888384261697 10.16453669395383
In 10.813067097727988 6.4216197207618695 6.164942257748989
In 11.26713103140615 7.398124494153533 9.25099163735224
In 9.282598170859767 11.215793568717054 6.847681046552566
In 6.53066332845856 10.611775072506306 7.874610484314113
In 7.879815954830735 12.291692843207137 9.988754771484375
In 9.865249138573859 8.177860659110948 12.218249117063278
In 7.000011490084095 8.822580633283419 10.284122953980827
