13
Energy = -26.82005115 eV
In 8.101171874672959 11.723408958383905 10.955950360401706
In 10.715704793406703 10.596445367893631 11.379815911135115
In 10.786984172809857 7.718776261468708 12.436915512108015
In 10.234763772789647 13.237655414303005 9.089596127820041
In 7.922870020158536 9.030971765043272 12.797268754814878
In 12.544996492351036 8.213973216392525 9.83030001113268
In 12.728728421107853 11.478857945594402 9.36820933757256
In 6.546901783763407 9.222707126895966 9.853805190287325
In 9.215660417500608 8.11233026150238 9.915821974556088
In 10.598076809016169 10.050818869327083 7.844755407473901
In 7.97607137363451 11.26927948356786 7.859061352714307
In 7.786439039126959 8.208782607389725 6.996761241127726
In 10.690532973609264 6.984894666185042 7.520640762803312
