10
Energy = -19.41101134 eV
In 12.347919431766732 9.038256459416939 10.587004162881522
In 11.824724276879632 11.234391027635752 8.251694671016987
In 11.229736553325656 8.224557274046385 7.815921011470385
In 10.009078286875036 11.061828404956774 10.755665607420873
In 9.454104390694576 7.8906851004632905 10.488834850904006
In 7.074391084890828 10.078217133753125 10.487297462343642
In 8.850014299661549 10.407822683249524 7.8095791246398045
In 8.291238927427871 7.240699658275547 7.546372880697697
In 5.953645250373852 9.266387579306127 7.717582060172605
In 6.477248461599005 7.069254678896418 10.052148168452092
