11
Energy = -21.37015754 eV
In 11.433626855984876 10.42541828011964 9.911302167581606
In 7.985811178881854 8.788334666423934 11.101038637254257
In 9.19734476350874 11.338478433911703 11.92110218896252
In 8.361367545914819 5.621653557822464 10.357722961547417
In 11.497428586250402 11.415392027156136 6.793175953049063
In 10.374191300959287 7.790729207230118 9.412218241863114
In 7.500253393765758 9.561789860062044 8.148611056975689
In 8.28028401697595 6.600820134520806 7.366156216060307
In 10.090409179930486 8.883029370971673 6.446271130811254
In 5.819517099451406 7.186606344992642 9.239928209976673
In 8.998397821394832 11.926379373770434 8.841104249881187
