11
Energy = -22.16435433 eV
In 8.713455002458003 13.058195530080626 11.79185211018017
In 12.43686751290923 9.331954708455987 13.877099871036242
In 9.578007136250326 10.290249405346596 13.773019957148238
In 8.214262024776504 10.163454101694564 11.085719290045914
In 11.57449336676178 11.833636752379658 11.921764313224847
In 10.790007239262573 14.504896098261398 10.150025452322895
In 12.921346671410499 10.011114265376804 8.826350175048502
In 14.189505318785093 10.162475750247266 11.563914413068352
In 10.194906858867265 11.39487499924057 9.09944505193985
In 10.989566051579564 8.883643703585667 10.911219044942547
In 13.287724906207355 12.91943769499162 9.553852694632011
