11
Energy = -22.03749765 eV
In 11.337516313308042 11.833856446200233 12.660447397344829
In 9.237544571435727 9.452687876775121 12.680486010614459
In 8.268863514928139 12.37145005554175 11.792394899205366
In 12.111372215184202 8.899114782235833 11.671711014348352
In 13.27572455856422 11.4520746454019 10.115468413292856
In 10.221740796525753 10.913951539321149 9.868750031058516
In 7.223682848248714 11.250662768385784 9.112339327260823
In 8.175846077204804 8.377175023602403 10.16927676685462
In 12.11863248212867 10.33613928217298 7.480672192799239
In 11.08005176548379 7.815682742382911 9.152607860463736
In 9.085364189418348 9.482431525952775 7.293863295015118
