15
Energy = -31.59775839 eV
In 12.412304187317249 8.783210804913603 12.92968818888464
In 13.961292933680097 11.56425430028004 12.738329889256859
In 9.393128612090033 9.232018004556172 13.860193128578981
In 10.926928419131386 12.094052901901817 13.778374197585936
In 12.297926125561562 7.6319370257372565 10.08944030844313
In 12.231603421579077 13.395737305106922 10.614915601046047
In 10.988335362578317 10.716394028418065 11.17820314777122
In 13.554832707731729 10.52319931952748 9.638568400580478
In 8.06878560145333 11.272174027173032 11.637744906313198
In 9.456034657725269 14.121012293499772 12.007346781712767
In 9.573651647075565 12.511489931330841 9.146958546736336
In 9.24975439624238 8.324222731416894 10.69554766345847
In 12.456039306873741 12.61277925445952 7.427962001019474
In 10.709251600851436 9.855630321779387 8.237088113825038
In 7.376812840348954 10.01856957013866 8.676320945026971
