15
Energy = -30.9152605 eV
In 9.080898654656183 8.039609984063741 5.739001531774875
In 9.087259510537947 11.12431268039692 6.229193307791334
In 6.947738852514601 11.805955589266176 8.313877957334986
In 10.48461220384997 9.236083481155317 8.258255604198885
In 9.641260684885866 6.248206889839201 8.243123815700569
In 7.0702591008756075 8.796338979456667 8.189776820365754
In 9.991855388359665 12.227870210029222 9.174264477809867
In 12.38376704944911 10.425937127209414 10.28459690523062
In 7.48845963554572 6.772462713755329 10.372267335134152
In 10.606131386320905 7.664602388717137 10.950172366790065
In 8.417321591171739 9.939292846154997 10.672746252030276
In 11.172863314000484 13.362592164324553 11.69599522628708
In 11.979151973477416 9.00589439374615 13.237671038667976
In 13.310635171583202 11.673047089698246 13.034531842728093
In 9.717787755018218 11.057795734433492 12.984527790402074
