11
Energy = -21.79335498 eV
In 10.138578700232824 13.664798617225978 10.57718068524499
In 9.491857091510216 10.696032810708498 9.35894468147895
In 7.480930368485954 9.970839836623515 11.581600709227338
In 10.272050759617718 7.7474912816102295 8.912726104898603
In 8.86680893799492 7.363576184748818 11.454711019504307
In 10.216640627356934 11.191496930517282 12.398069537992
In 12.181003540938784 9.341250942141116 10.702457443526036
In 12.50877165474768 11.30081195909586 8.336832078284182
In 10.159464979084257 13.107243512540505 7.545209711237116
In 10.997828301631387 8.367528701686696 13.280265627641416
In 12.89140964544486 12.473829351415365 11.10039708231122
