10
Energy = -18.3356797 eV
In 10.45494294512741 13.737463215768155 9.713384531321136
In 15.148412413715592 11.996529288775541 11.678456169287719
In 12.02942457343363 9.130062375943586 9.301209107847587
In 8.768180020910163 11.525225349342874 11.826797528226098
In 13.214435252386911 14.200767446841022 10.893253493157404
In 11.978920391987517 11.283867280483232 11.250417864885831
In 10.586646776424828 13.915570373324208 12.88659909857537
In 13.44589856091324 9.79960382809212 13.774495561610912
In 10.627967042897495 10.859140453303176 14.128699796248732
In 13.157881640601667 12.964480006524663 13.95939646723742
