12
Energy = -24.62046802 eV
In 9.0851186574082 8.86392151401189 9.177368993161464
In 7.29466687621569 11.452931314610058 10.551832887556445
In 11.94784066926489 10.64096537862774 8.771916296365022
In 9.00736969331128 12.898949452274088 12.597880323601013
In 13.375536715392263 12.235854909073833 11.014968527211163
In 13.01525763382181 9.247009521618917 11.753860779750557
In 11.864617297973496 12.307540083741971 13.614130429245165
In 9.145352156025606 11.848479888296135 8.215911489257449
In 10.399902045678932 7.268052407331341 11.748155454918178
In 12.027885635122677 7.772685035199151 9.142122931862506
In 10.783723444533226 13.438702645066696 10.111247499806389
In 10.24741223740583 10.37402599859626 11.510554433062563
