12
Energy = -23.60337457 eV
In 13.051846576969327 9.189218585711638 10.172301381683212
In 12.124790191042646 11.424783570388785 8.246184814924906
In 12.698911039257023 12.082888389136167 11.223445005816748
In 10.814809581160114 8.559587170867058 8.10364060667016
In 11.789208816024688 9.670949944065587 12.991348141674187
In 10.571343677606341 7.5677343038100755 11.051669819311938
In 10.074609688277098 12.23485709372343 12.792049693161974
In 10.313248274405423 13.438030972260337 9.764420886830626
In 9.123795434697222 11.105267583945245 7.77892864263026
In 8.699482350236911 9.327059489026864 12.73186774745158
In 8.073990211890003 8.579565230987367 9.563955262715966
In 8.037703143185 11.485238211370543 10.611032746390217
