15
Energy = -31.16463377 eV
In 11.911076989462194 7.459730611115551 9.265585305325938
In 8.28177711708255 12.121082813794603 7.831122010559973
In 10.857356289696861 8.610334144070078 6.719746974300271
In 7.213349049466527 7.26427206106959 11.49861401652879
In 7.831379783757469 9.329138488763865 6.603072795508433
In 11.766750817029227 11.32644654688372 7.8403626990293045
In 8.848761614814219 7.178868130334086 8.821357279088117
In 12.58887131602687 10.18197735958255 10.452919022633147
In 7.869706827697438 9.903510736044451 12.803802697378174
In 6.279160296693346 8.898501120503747 9.111446574990314
In 10.201087956153037 6.58362003300749 11.657327360779716
In 9.532535193581515 9.93445866226382 9.947992605378163
In 9.97766801356274 11.483596533612666 5.24258863056191
In 6.918522899667164 11.593952333230849 10.440547447358778
In 11.022323092290568 9.230837682704278 12.86384256661575
