11
Energy = -21.84697775 eV
In 12.54491184608801 8.580809394713846 11.982467345711093
In 9.47598779229756 9.223308011289486 10.262781073527542
In 9.811907332266733 7.9534408835097254 12.962247442073169
In 7.605763501094844 8.3481868453793 7.859112588965514
In 10.992388331107282 12.541501434659356 8.236831177543522
In 9.308523671490557 12.234420497442143 10.742468826518914
In 7.993418538049717 11.46743251642825 8.17669303136686
In 10.327580983678136 9.70093535474945 6.996832378707662
In 12.15385263827253 11.54217918502352 12.09540044532253
In 9.578183418010372 10.8694122947216 13.451008915318273
In 12.25384806691983 9.986944485419958 9.268610895827386
