13
Energy = -26.82211909 eV
In 12.779536898154527 9.16168410281314 8.038127364678763
In 9.87398241737522 10.011039431503157 9.415856893811185
In 12.247229420846416 9.63393736037609 11.135848679297325
In 10.750606694952744 12.27619413393356 11.681377632976824
In 10.049712738293307 9.135229075792589 6.604884532649142
In 11.52327852552706 6.754420353943925 9.451783499415738
In 8.623627355134733 7.084598597882453 8.735753786116556
In 7.996668388899378 12.18434420398699 10.089572244279891
In 8.41189545516692 11.832686040275485 7.0557599535773114
In 6.800236819685139 9.28965212709082 7.587221462818788
In 8.70862998318961 10.325078136862347 12.858442077022033
In 9.659497323826136 7.71534508710167 11.716316281132757
In 6.983241771220217 9.124117811779826 10.591080915387606
