15
Energy = -31.22465668 eV
In 13.989669317163205 13.371573196641915 14.95921476257031
In 9.196821153611992 12.768435398665305 15.37758009695151
In 15.619641222169115 12.9230749890587 11.253975011013429
In 12.892720398847308 8.981762426781843 13.513689312708975
In 14.077764310583685 11.371791511399588 8.91516825271226
In 10.13776623591439 11.135362953068878 12.826931090960715
In 15.163261731160123 9.67410651804793 11.467576573394041
In 11.362012862203981 14.151376178727736 13.10844165311236
In 11.696934108308326 10.182726354859305 10.36145885734885
In 11.919509370246388 11.186932540969627 15.428618935327862
In 14.212708783533007 15.336210481790879 12.563997601662885
In 8.222043005657532 14.08861510441495 12.565436744244261
In 9.837534725874134 12.770590204992716 10.2826111180011
In 13.15687023534421 11.820021700372301 12.485955547961215
In 12.544809128302772 13.850478821025039 10.185352136336068
