12
Energy = -24.26922741 eV
In 9.872789599379397 11.221373214529779 10.073244223907702
In 10.729314687842015 13.769209650412234 11.92114039076711
In 8.735605542739286 11.568182629632554 12.885352071546885
In 7.334742950597572 9.658425559506846 10.872545221580046
In 8.267605261163306 9.526543640061782 7.884771754908124
In 11.925393506034865 12.241037945565402 8.28043944548481
In 13.277538266337729 12.312808709502889 11.064558751946223
In 10.250220026010943 8.039933720927072 10.160192414920187
In 11.22010009079597 9.333791793849604 7.3285835897665645
In 11.645010624453475 10.191876626120267 12.552777488810232
In 12.96421718064655 9.37921884159775 9.865157746760723
In 9.292859907309248 8.408640181847375 12.960498523692554
