10
Energy = -19.77934546 eV
In 9.45176413155213 10.227521244438888 6.172135958129342
In 10.406484410205609 7.601327726432474 7.314148558506605
In 8.364878508342692 9.9224224511176 9.249597981752888
In 12.461286374503143 8.789766991324022 9.235920285330264
In 11.05602483992043 11.265831406613916 8.512771659620602
In 9.878490726920008 7.676857752171355 10.383455168558026
In 9.733150806553365 12.485032791516968 10.979742312026351
In 11.282027818979524 10.134489460443795 11.925743775701429
In 7.1650379100297386 11.346774810776417 11.783911913583394
In 8.612808937165653 8.961929829336858 12.85452685096381
