10
Energy = -19.80181547 eV
In 13.983862154436151 11.299428703275005 10.440242118234234
In 12.169299079038117 8.171471403929104 10.893350491530647
In 11.294852991100718 10.90349121209839 9.2933868101775
In 11.956321051092424 13.270485240865384 11.573985059553557
In 13.005727854860655 10.136159703082834 13.056020928322484
In 9.394166286385843 8.127913396830229 9.970153840613872
In 9.265027926062084 13.368157512035435 10.429125045601408
In 10.230673766747309 10.569051345761844 12.138766471074154
In 8.57722665451208 10.549364559371698 8.294470847191231
In 7.5260872624673905 10.95778332449648 11.11119947989883
