14
Energy = -26.88525808 eV
In 7.951140716901857 13.339915311953689 10.39377471025591
In 11.03210468628926 12.89795088404433 9.93102260912871
In 13.383748854783205 14.89962035677091 10.259222738006947
In 9.071774169761158 10.526850871402745 10.105058749671574
In 13.992731555605248 11.955079889973952 9.887329395342476
In 10.371386065013995 7.801635966930965 9.603719779008369
In 9.388149629014332 12.174432375556227 12.819865504063072
In 12.135386549618257 14.26238035836252 12.952696142204648
In 10.316948351465113 13.732503587048805 15.313370916855177
In 13.08672131265965 8.913098865983052 10.46785769897375
In 11.006254140413752 10.673711642584749 14.995126081620352
In 12.797291132213031 11.321363036134832 12.605530793570594
In 10.625184397980528 8.907768073085023 12.48900979059519
In 15.73762750781202 9.559801596221043 9.223448199246725
