15
Energy = -31.24249779 eV
In 12.016460679162483 11.326520896052894 8.291813949356529
In 10.065480904098086 10.010119085692525 6.340242325427172
In 11.726310413639823 7.396612012459207 7.119098289437662
In 8.936020194577022 11.822798173797253 8.905978829930673
In 8.836404300918124 6.8481890754254 7.653206596760894
In 13.169902976956918 8.700452084977066 9.355446478773686
In 7.312831362524715 9.54051493873413 7.65300593869547
In 6.573749803544627 10.461706142079061 10.423489549619438
In 7.495395534710355 7.390788455134934 10.446979352955653
In 10.076163609496147 9.02733270190642 9.697044865269328
In 12.330723088738615 9.771260996447015 11.99628893496195
In 11.128851911541405 12.41937369531339 10.957730850130847
In 9.029003021096289 9.130954344320957 12.541817273922113
In 8.283496376664685 12.257586080131302 12.07240981170216
In 10.632961387557067 11.50954688275453 14.159202518282914
