14
Energy = -28.83533149 eV
In 14.983008296546164 13.538496344611602 12.928428524902952
In 14.522141180885688 10.582945322812773 11.268585916475079
In 15.6576072892587 13.169143643251719 9.94985689892596
In 13.163210708990782 10.853126452229903 13.874738818363333
In 12.514018195056732 13.004419342757666 10.434037831404378
In 11.403766241042803 10.084762846582098 11.503146190006156
In 11.97263726910521 13.63526257618404 13.283057545203521
In 9.980179678758843 11.35136026967504 14.032369900309646
In 8.726961867332323 8.823539697846709 12.944786190199753
In 12.944400153539627 9.961103848540962 8.669082033261073
In 9.48228418397424 12.990355327727748 11.408819674481913
In 6.968014690773804 11.706759940247853 12.697573183349384
In 8.72900495769857 10.114145874624569 10.230617276675584
In 10.58979615623378 11.828486216931115 8.447596066881106
