20
Energy = -43.24251203 Dir = /p/work1/plile1/GA_structures/In/20/all_candidates/825/
In 9.557957826866481 8.645624105777383 9.319564541889475
In 14.32743076098937 9.135659534162643 8.348469823287207
In 9.258958396674831 5.316869682613809 8.153733773143548
In 11.714241980909954 10.278530956180997 7.048972404160205
In 11.174909126546073 7.343187623783161 7.033590434843054
In 6.976185998260525 7.261401135631988 8.373008827992262
In 8.96925783630777 11.179447170167863 7.890604208176108
In 11.301177862716237 13.260527038652931 7.959301512886756
In 14.074865459600595 12.146489115459369 8.70928607900652
In 6.320324271221205 10.129176944824538 8.84201884467898
In 7.096910822629371 13.16390000323483 9.378055392408276
In 11.843800682131649 10.535687019954732 10.36965021294838
In 9.889662985681007 12.817867212309029 10.67338156386496
In 5.068587031571244 8.903501707864665 11.456635673501316
In 12.450963015040266 7.550665386012667 10.041494248881783
In 5.403881846827106 11.916639763981996 11.61399063643989
In 8.244832346198912 10.439023961814247 11.532641007321432
In 10.15027353403245 5.867267831208239 11.015408632204052
In 7.655886112894695 7.440669385869321 11.573563467253035
In 10.674687360230532 8.822659677825992 12.821423972443293
