20
Energy = -43.37727356 Dir = /p/work1/plile1/GA_structures/In/20/all_candidates/44/
In 13.188982636316538 6.2361295974075714 10.569150904377953
In 6.698394408209827 12.090917089114784 10.305587973925851
In 11.371452981683019 8.732450434838391 10.960534719816355
In 13.248877493721471 8.200535582435712 8.241101596211157
In 11.374986203012135 12.61257812165338 6.40910858145355
In 8.140794571310094 10.018706968520423 12.053440038639607
In 7.6785993472286105 7.37086120744543 6.896094903590817
In 9.414639343893821 12.784849523413003 9.02214294036376
In 9.482952854305813 7.501875079983616 13.065681029645932
In 8.453044865815773 13.549421225230539 12.319339219067013
In 9.052022164307235 9.674577624373887 9.130293162174539
In 8.419511354753771 11.469571482997424 6.235556990636763
In 10.824434454390694 11.659148371583239 11.793275222730637
In 10.299060286457403 5.381953012829109 10.87399726599428
In 10.53409945423339 6.7659186544965975 8.201243359975654
In 6.318789104810587 10.088059961277475 7.962448549314792
In 12.06984196608759 10.894329137602814 8.879548538016216
In 7.799573675083779 7.1117093068557695 10.2357867392838
In 5.260939212252797 8.750445578724692 10.496657410455985
In 10.517180994103192 9.25413941119398 6.4971882263035585
