25
Energy = -54.86748003 Dir = /p/work1/plile1/GA_structures/In/25/all_candidates/578/
In 13.557730272570467 11.695384500522538 7.933314126692029
In 11.11010542077076 13.774649797544262 7.717123118550342
In 12.94913995900293 13.555302924528563 11.032428884376696
In 13.332985289612573 10.182881390285381 11.173799501773651
In 12.03123100537497 8.972072945478939 8.47224706445611
In 12.253698791890915 7.120193035463895 11.64552071666898
In 10.510193620172727 10.751149939527593 6.456642146619896
In 14.656059855228243 7.401504941936992 9.651202699215185
In 10.278951629999794 9.581587325887527 11.89703190055899
In 10.34190012202526 12.544656703924051 12.833662978797035
In 10.855392234946562 11.46954948609136 9.740325600648168
In 9.333637318570172 14.095908794702197 10.180456036764774
In 6.658016033591655 6.8482758837377915 8.480835375425086
In 5.930314877838458 10.027515628196868 8.884274668618552
In 4.941854754400966 10.266302119829048 11.967441850466741
In 7.262712001689484 8.257116112170808 11.506687857159605
In 9.688791620628674 7.288587402271366 6.755676876528419
In 9.431703636203737 6.531204976268172 10.324612553499339
In 7.430644403167982 9.579972804995927 5.952346416395971
In 11.83281811017467 5.95194830266854 8.563623223093636
In 9.57293872377537 7.248099356347268 13.589291434965864
In 7.844474836996264 10.446122453012592 13.954348611803127
In 8.934191447272056 9.231094127743162 8.984367737971455
In 7.721672091733517 11.628089431372644 11.016293244056193
In 8.133166160698515 12.145153833829811 7.8807695932315
