25
Energy = -55.30933885 Dir = /p/work1/plile1/GA_structures/In/25/all_candidates/993/
In 4.9851977743396905 10.215466720191092 6.515541464612726
In 8.294686900106463 10.49201585503573 6.3658141817484015
In 10.110595731984201 8.031116006138896 5.305383060758758
In 6.737731862831146 7.761798808403354 6.703488922819308
In 8.337601721577697 5.396599098374306 5.902657248899468
In 12.351291382328041 7.32111228560895 7.788047055530638
In 9.846797693333356 13.118030654461071 7.8015690122110835
In 11.24022257559968 10.27468812075733 7.168062455310267
In 14.271587670575506 9.681766036392613 8.273264449968348
In 6.468147115191246 12.037883822172908 8.429991712330596
In 9.299810062445491 7.918638629613908 8.473911538336438
In 10.307785348142726 5.009231502655001 8.046941948329843
In 12.386008175653583 11.537718330718151 9.818107901018788
In 7.042343522719773 5.666751296800929 9.337291980615907
In 9.184574210627146 10.61602795812943 9.717184915899898
In 6.145530803218833 9.046245514090083 9.52243676682905
In 7.735229785360958 13.334816540211111 10.671176788383521
In 10.696465991711591 5.717882549149322 10.875416665638372
In 11.937788283804027 8.570773789244504 10.603803711967169
In 8.275225564954766 7.68942377226779 11.41734533388083
In 10.526323721268906 12.962838391996959 11.632327302226
In 6.91169958314208 10.56062365861935 12.080142736776892
In 10.198031423638115 10.034422526595204 12.67446116652489
In 8.500331298087646 12.481914407109722 14.00270515025009
In 10.891513961633315 7.204735889538144 13.555448693408476
