20
Energy = -43.41580295 Dir = /p/work1/plile1/GA_structures/In/20/all_candidates/92/
In 12.178609126726371 8.722801619952973 5.512192149756939
In 9.472778187493223 10.252763399726916 6.125993758075048
In 11.855948180692776 12.364917274988548 6.840171309822521
In 6.690937829532219 9.39866764311677 7.274495322458105
In 9.458874874664623 7.343626688914459 6.848753471677895
In 8.095743773803866 12.672835824666274 7.350812898592107
In 12.437160092361205 6.844383378026476 7.975606017343264
In 9.94175569461947 4.701849316384323 8.566675869930563
In 7.345844044940928 6.7743988974003635 8.811523876868684
In 10.23851141787258 12.454619489718414 9.628114630447396
In 11.83431280144428 9.847178284289617 8.669446535857023
In 10.627732954201509 7.465580929987988 10.326817931080148
In 5.523973326160439 5.986154896368922 11.482757372781595
In 5.5152827693027255 8.879032396830844 10.266614972037225
In 5.956822863107764 11.79552379010112 9.279472725048011
In 10.867770038909415 10.16511027606255 11.798874600281833
In 8.602287379183439 5.589155942108546 11.470181607643598
In 8.770929610696328 9.768371134298468 9.305365515827624
In 7.855716988804913 11.698840370946218 11.667415978512441
In 8.04750611600624 8.59268651663438 12.117211526482386
