25
Energy = -54.98112564 Dir = /p/work1/plile1/GA_structures/In/25/all_candidates/678/
In 11.497611024925252 9.448647213279175 5.217260145909026
In 6.718610898465251 10.108009573387196 6.4804146729234295
In 9.244519011767226 8.120342500619554 7.012310190349493
In 7.818424788737342 5.762726765656607 8.49844114387851
In 12.214365153306321 7.939821796374031 8.113350936698314
In 12.611624303691649 10.909957110751746 7.892036017483204
In 8.630371866625996 14.014543520355556 8.05321673731572
In 9.57263163009837 11.194563750459603 7.190214959772181
In 11.662305472238074 13.770834585810157 7.520627321166166
In 7.046192486168376 8.592969706219101 9.297359222010652
In 7.208378216909228 11.634014929494853 9.381356727384212
In 10.807511300444206 5.298831781796258 7.31182017390774
In 10.61630839078417 12.702730170747843 10.30681187772369
In 10.035299616012491 9.608309472276586 9.940333076900957
In 7.99844407336057 14.226134911829506 11.29942682549734
In 13.217057385152964 7.645094258313777 10.981281583853868
In 10.173702851628358 6.536739361191289 10.359536578529923
In 12.990351248688702 10.744726238062103 10.819023460841173
In 7.822237790998406 8.038342224724115 12.180547220988643
In 8.406533491801685 11.174642682411985 12.189330311380546
In 5.4180182679919895 10.213005209582265 11.61514528460416
In 10.818758620075311 8.212609550225203 12.859730433528764
In 13.695035587915093 9.406351166006866 13.688846204154766
In 11.219092328573158 11.444081211555874 13.219393932991363
In 8.888429004936746 9.583785120165391 14.903999771502534
