25
Energy = -55.22231121 Dir = /p/work1/plile1/GA_structures/In/25/all_candidates/222/
In 10.036925562439492 10.627852414992045 5.945181763171479
In 10.161129489164724 7.402379487606038 5.998717137075857
In 7.090447353070576 9.920537733276966 6.303603734186102
In 12.886478896112454 10.009545117661776 7.0702548203071185
In 11.209689279466819 12.166295146485476 8.606640044692904
In 5.37318484110188 12.244178008346251 7.6947606311417776
In 8.434627686613796 12.50845619554333 7.960335033707191
In 9.863035768076502 9.17959232129576 8.768574802702616
In 9.82095216737271 5.800465365100667 9.587142829351157
In 12.291358022889925 7.196767437254197 8.303851386943867
In 7.552987807508709 7.193273715444837 7.929700845794957
In 14.301799132455868 12.041719785374196 9.178339115792369
In 6.787812033994291 9.994072022622618 9.41509541978363
In 6.217748171942336 12.814176653145504 10.666430820574934
In 9.26346664113013 13.901785274388454 10.680618231827065
In 9.079828348871896 5.590045126498826 12.707299725735833
In 13.418223198558074 6.316780153859045 11.045657160415727
In 12.740582248654105 9.677008554305187 10.390597842065244
In 12.214739128947734 12.885987790865954 11.462316615269016
In 9.417705187239811 10.854195581866316 11.239844112167196
In 7.603777649992552 7.793542579094057 11.097642729974245
In 10.897636929675867 7.8782409270009435 11.757744424074753
In 6.6028079982584496 10.507691110688766 12.673861919046155
In 11.659554123488224 10.46096592656155 13.395168988648177
In 8.893908634491055 8.854851872239207 13.94102616706824
