20
Energy = -43.32803736 Dir = /p/work1/plile1/GA_structures/In/20/all_candidates/55/
In 7.1056788602322865 8.909902291501892 4.913205119000169
In 5.469011952500022 10.899134077583312 6.739177441694185
In 11.50442957636519 11.598235661683432 7.97905741958255
In 8.45217300966353 11.20432645973617 7.199641505639954
In 9.897178262399827 8.825597441356429 6.072084478124122
In 6.70739203703846 8.205718181638801 7.936086760744386
In 11.707360901840108 5.361040040262547 8.304156850645697
In 8.914649442125825 6.2438576677135496 7.830241962209544
In 5.622304200140568 13.263081248987 8.724033968864743
In 12.08122930112589 8.38903873878614 8.097802971653998
In 9.325824638111332 9.113573528518552 9.473747702696842
In 10.14162911916499 6.491916713058263 10.836577930160374
In 5.876238488944759 10.266103138131967 9.90562662889889
In 12.684894975282122 9.118867238383327 10.957325774720083
In 8.362446505166735 12.499802922536302 9.87620296057549
In 6.955748545564591 6.845549857670552 10.864139056162692
In 10.722129136218264 11.249084480119269 11.265846234439406
In 13.373875903834724 6.1134844941009145 10.698021973953209
In 10.18104928423872 8.415108129492898 13.082219262260582
In 7.806521975670203 9.878343804366445 12.136570113600945
