20
Energy = -43.30560556 Dir = /p/work1/plile1/GA_structures/In/20/all_candidates/143/
In 10.416944689489297 8.029459147604245 5.733371735264292
In 10.38503777520756 11.371213320547286 5.460616967827607
In 7.648053314970055 6.834162328121009 5.749140789803204
In 7.633102549783951 10.28409965897427 5.425749264345718
In 10.931481406527755 6.604754031200028 8.618747742472346
In 9.830498017864345 4.652235124579806 6.476265672848454
In 4.646302607279872 6.627427954910721 8.697320786908897
In 12.499987891428967 9.650509902064737 7.244287897235202
In 9.836619876483208 12.082232087784877 8.368662064877556
In 5.517930308472102 8.874346898428179 6.907204568735382
In 8.871713063743094 9.222827359259432 8.071055855180484
In 7.827640603547271 6.3617931036205775 8.738405039117833
In 6.233788006151331 9.559485202507426 9.707562719567179
In 11.164522154365821 12.193403942980675 11.258732893184737
In 11.426729082367535 9.377608206007617 10.0272323824139
In 6.144322637254415 6.965383670346068 11.364899360161148
In 8.31251456473022 11.151395420449292 10.92897269569266
In 9.207150369051913 7.654767149053091 11.14560916653953
In 10.494809594785945 9.673868172344566 13.200642108677169
In 7.320044809306949 9.17822064202845 13.224713611959048
