20
Energy = -43.36663384 Dir = /p/work1/plile1/GA_structures/In/20/all_candidates/520/
In 8.765876299058087 7.533297678084059 6.095749863623104
In 9.67467922342331 10.596525903570491 5.214647462097297
In 6.9444108302275245 9.847244676309293 6.777838524360918
In 11.447919162732298 9.051517305034851 7.149462499860915
In 5.536400643129583 6.881239586956313 6.35343827508222
In 7.681597694177137 4.8966908718693825 7.5922892078714455
In 12.021631884489414 11.187640819313541 9.382742412815146
In 9.259566543688143 11.79863496041022 8.02783939457309
In 5.958117069438886 11.891296703114344 8.740116656474099
In 10.996217076672721 5.742186907431386 7.014529325518713
In 6.709997418209426 6.803178560455599 9.695247197895133
In 4.626679567923346 8.728512355103492 8.729128632354602
In 12.933806054797548 7.162604028342875 8.971054184867434
In 9.802176566445535 5.8910517168448795 9.84487461967493
In 8.176960794694308 12.785512579434332 10.678278697255715
In 9.674392438537652 10.544205059271679 11.831546904599666
In 9.051942787546537 8.878256992822038 9.081021644544506
In 8.294125957134115 7.382677107957276 12.31820179387676
In 6.681420947971601 9.806540616667316 10.94894601711561
In 11.423467218526344 8.252571749830267 11.214432864361862
