25
Energy = -55.04436566 Dir = /p/work1/plile1/GA_structures/In/25/all_candidates/155/
In 9.034803659492674 8.032259953695604 4.6123947463701604
In 8.678210932240516 11.179172925555928 5.800305942189329
In 11.218020026665348 9.535527742472457 6.543686406741054
In 5.666121393574753 10.356479828779433 6.260927801026564
In 10.495755345627806 6.563558993746099 7.141701438953824
In 10.41493924992053 12.68018216713205 7.933338597400933
In 7.695694486319645 5.28431206125439 7.467952652342426
In 12.598020156995199 7.832519489755937 9.08256040092635
In 5.411085558283179 7.331538092409194 6.940572045298042
In 8.12950804577094 8.607488043052989 7.478467234601615
In 12.174280500714621 13.87862845569559 10.199162854977859
In 7.272146805933347 11.437693048600027 8.785781355573508
In 12.881544363151555 10.93535025925406 8.837966414680443
In 5.934377322247985 8.81214507834027 9.734634387068825
In 9.973427004022854 9.78901606659737 9.44822990233684
In 8.337498710203969 6.941675232348341 10.047131149361677
In 11.026590234786756 5.250873186083767 10.255305644729031
In 9.172674739603515 12.751238236538839 11.003891647972333
In 6.189948624717326 11.826116202485748 11.793536656927191
In 8.67219882222036 9.921080492015669 12.259456363429866
In 14.21382316072686 9.099091898054436 11.395958202152814
In 11.675626259198987 11.094789535409394 11.78554915076425
In 5.967166161557951 8.58054753192177 12.738065198722973
In 8.594181780107784 6.802655561291193 13.009257276565549
In 11.17540141228926 8.079104673883604 12.047211285260545
