30
Energy = -66.81871577 Dir = /p/work1/plile1/GA_structures/In/30/all_candidates/801/
In 10.035953373004483 12.223665380087523 4.9620649031401864
In 10.90789539472745 9.378702899626603 6.179666563691962
In 12.690506414518657 12.854988371430357 6.611391379496308
In 9.388463462716674 14.62586565661082 7.047137623336437
In 6.543032888582173 13.28927198095919 7.819380172934977
In 12.05547759899591 7.335673098662109 8.45266034106424
In 9.1912231307786 11.566835672220606 7.916704365659721
In 9.173024425864162 8.684949278732175 9.113380504490184
In 14.51082002729024 9.017478812313364 9.944075934616798
In 11.569876636206727 13.875367028796887 9.339860085638705
In 14.825491035930979 12.447841679393562 8.937837855552315
In 8.371086209141964 14.117335802188117 10.306873405517974
In 12.1512176832291 10.642685271121513 8.690315178592863
In 9.913691337216475 6.4289649794538715 11.237000839099677
In 6.920298502214361 10.964847140781906 10.186049522993398
In 6.703814115909814 7.43992764655512 10.825580310525982
In 10.08607804139366 11.63673556724686 10.841287718715705
In 13.176296374645098 6.304320378564514 11.575623000623827
In 11.673203793178033 9.048343609473394 11.205442424174505
In 8.8007267998583 9.392991349480733 12.251328955141192
In 16.30605968302652 11.077311917810944 11.416616411155413
In 13.14038124601557 12.000658628447878 11.621384758703298
In 5.82908469731598 9.763067556007645 13.12998332323735
In 8.026330750076392 12.430114518195353 13.121543940709701
In 13.948713669274197 9.259254475552916 13.359526224450303
In 11.182271679515805 7.935514687529211 14.07661321911707
In 10.958599180055689 14.231875575245626 12.627953509139466
In 8.089118246242526 6.859065637214288 13.904533540189808
In 11.115909669495407 11.176305732269961 13.88654163851294
In 8.661223321795537 9.935909056243267 15.357511737993958
