30
Energy = -66.95650548 Dir = /p/work1/plile1/GA_structures/In/30/all_candidates/1040/
In 8.2159258150793 11.638511714626418 5.546031401836121
In 8.22796964848637 6.31888474081802 5.669432076345784
In 11.300709920098072 11.823771002873306 5.4789638190394925
In 10.388657062476971 8.671854673613757 6.070135698334272
In 13.290103750092403 10.320141224394476 7.365798552636109
In 6.962012087216907 9.003578769697565 6.446883792168186
In 11.997084385141886 13.469171446722122 8.173815085215239
In 8.940833148831661 13.915886201735132 7.738418434811259
In 6.37194890740616 11.702032492852485 8.169290111100223
In 10.214360844594855 5.808419905764015 7.897599134658088
In 9.785856760119808 10.969623661227232 8.332730106500023
In 6.4559728570926 5.871489568786333 8.274196758229424
In 8.687715833895268 4.965955676464731 10.477949178008656
In 11.325538477463583 8.556497360702442 9.206510011757505
In 5.322792008603408 8.825069935581864 9.015743707269406
In 12.817136042725464 11.34367091080976 10.313569186192185
In 14.353012586290465 8.33071861048168 9.616351430420895
In 8.391463637644783 8.220535037820186 9.336674797194503
In 10.896027320583714 14.030124554101713 11.114976823860799
In 12.341008456959866 5.840489389625532 10.21983904259951
In 9.900041095985213 10.311243392090933 11.410142404093522
In 8.105291502934934 13.025573241543283 10.598051523349628
In 12.750353409842832 8.829170352814849 12.249860482521724
In 10.211567008845126 6.984969757720374 12.23951661188671
In 6.478297270620029 10.537870279453738 11.2269575162702
In 6.390334126080334 6.959108854481933 11.472472497547862
In 11.725856594142808 11.974316053107907 13.336336115357252
In 7.762003531848411 8.882865769293346 13.408809645152077
In 8.445990146935454 12.154150046321904 13.553450148559948
In 10.56219285924909 9.33236247176147 14.657551004372243
