30
Energy = -67.46063796 Dir = /p/work1/plile1/GA_structures/In/30/all_candidates/756/
In 9.816704045464302 8.76084547413348 4.689738823585583
In 12.382075869754262 10.84619767766572 5.816309657419344
In 9.058145574936443 11.19963887558497 6.406780517654117
In 11.000417331720863 13.896802999858094 6.555323055195827
In 11.041487964689386 8.462305083614531 7.5830549139259755
In 7.795125970999286 7.9715258403525056 7.230242276828547
In 14.169836292099955 12.802412712646886 8.22325860154412
In 13.952910850541418 9.568563079900079 8.490032063203339
In 11.319788309146162 11.667630961912002 8.641894940409816
In 6.0259807262618486 10.931525656924869 8.08991494695015
In 12.74867696498601 6.524521584774512 9.709511071910486
In 8.433598381969182 13.285342226432162 8.716067328467314
In 8.816882799016861 10.13283212066235 9.347024456901682
In 9.458315880551316 7.022467819172521 9.926547500667622
In 11.771592418753839 14.639141916971184 9.755374858830049
In 6.837298275666132 11.773087140206826 11.279331376032518
In 13.39773460947264 11.93633165914985 11.189331141366319
In 10.003318524532837 12.577437729683508 11.367209483562721
In 11.966474748258166 7.388341651275873 12.91774942944166
In 11.604069399846521 9.387930064007522 10.57848838002454
In 12.196829820144918 14.08505530131596 13.193216693974875
In 9.11304958423557 6.349319163357562 12.974734991714792
In 9.152370826501274 9.554600760708492 12.350338791155192
In 6.542214416472808 8.43591361083489 10.643743883584797
In 14.624543864094123 8.89799675548207 11.713430233654018
In 7.0575273394909175 10.88229522368726 14.253434634253953
In 12.041493159383426 10.526379615619144 13.573039990040018
In 9.674903476958464 12.38548715530039 14.415491399037588
In 9.995451040332869 8.876007041629045 15.320098897240868
In 6.730259196864202 7.961140760281009 13.778363324568346
