30
Energy = -66.93795444 Dir = /p/work1/plile1/GA_structures/In/30/all_candidates/1593/
In 13.212488550889109 13.143383581820045 5.369363415583236
In 12.165259728438361 14.885296115703447 7.91263321520067
In 10.496276087689553 12.318877717116019 6.628099155215014
In 13.138157596488231 10.362816440546894 7.046418006287635
In 9.555623088633869 9.9761558904156 8.133940240065746
In 14.762674253674104 13.055563949954024 8.094149454876112
In 9.64009897397761 6.906737223319981 8.415072295805022
In 9.133928365950675 14.383385620681105 8.620255324720471
In 12.233615142749342 8.81580927030688 9.442349631877251
In 8.979756757950826 12.003882145992414 10.506647845192054
In 11.950998333311542 12.055765042912904 9.600890910145154
In 14.814863422349168 10.615068661306882 10.028605082772042
In 11.325505793129214 14.944698749676432 10.806103959598174
In 8.508755432089844 8.876835345551656 10.875804364142732
In 10.888241454518232 6.82122106880393 11.235376473116153
In 14.474258648088588 14.249713922631496 10.809422980327867
In 10.988521286508586 10.23686030557841 12.249731191986033
In 7.988986075480384 14.781694379036093 11.680739041006424
In 14.031015626476787 8.748667255111872 12.306762311917709
In 13.39875768900933 12.08493446493882 12.70410579434849
In 8.30860590700956 8.915737461529286 13.935528913579422
In 13.251568637825933 15.343391676071954 13.438925884893603
In 11.20732889922322 7.596848988898182 14.05075155598052
In 10.430641728864904 13.574825954019076 13.289275079941746
In 7.559478812051717 11.844283128269383 13.223367789761081
In 12.998500419391348 9.927416584110198 14.940660136591806
In 12.579961026053018 13.195979984733567 15.579244126017024
In 10.001261443211499 11.292007545037347 15.204598467960725
In 10.45236593275807 8.616845965487316 16.80700211147255
In 12.251361006314001 11.154151680545528 17.793031359724104
