30
Energy = -66.58399914 Dir = /p/work1/plile1/GA_structures/In/30/all_candidates/1790/
In 11.301401051712174 10.127213099551433 7.0220362616022785
In 7.9991910407666325 9.803064391742176 5.657086143430699
In 8.775104316845082 12.496019061687935 6.745102304862828
In 11.2230093210015 12.936085315412715 8.555176609196987
In 14.07488637410588 11.259130829662354 7.815907001687264
In 12.782093803744143 7.598942089408732 8.483102927202292
In 9.216592880651106 7.918202478482277 7.869208400089066
In 6.112150773752311 9.231762911015752 8.12180887510221
In 11.522124427598088 10.118546385959151 10.190184234599078
In 8.475053659214876 13.996957795012326 9.716333591728704
In 11.259108626528992 15.351240800899934 10.753604025459406
In 4.439104950658183 10.034020640057753 10.689363533504022
In 6.12805969670656 12.357572307864045 8.364001773239023
In 8.69893905517557 10.639852001323609 9.353157400278585
In 13.219038041858978 12.756270769252891 10.703572489224996
In 14.539063623111746 9.568226760066231 10.447622232385852
In 7.204235113370075 8.28522357920778 10.960398074646461
In 6.917445041679922 11.746277730768687 11.594111444590954
In 12.79551284246609 7.308194986198301 11.946235626356936
In 10.194294556988407 7.249142346726112 10.601865059907412
In 15.141884006622863 11.592832473447503 12.610775020162322
In 9.977029347559668 12.650470435555995 12.096142327279626
In 12.188967073346944 10.175834194134875 13.22320627080886
In 9.1924566943738 9.575207989465179 12.796145829750909
In 14.90972710566547 8.559289756236735 13.718071661012694
In 12.377372755383192 13.765837937699809 13.575192574137846
In 16.020162757997266 10.78736120457714 15.61150906943541
In 15.24295029337277 13.830357941699576 14.81826180549565
In 9.929640279237628 11.583923031405371 15.082270836031258
In 13.000207233531903 11.553745500504515 15.735353341817223
