30
Energy = -66.60096376 Dir = /p/work1/plile1/GA_structures/In/30/all_candidates/1924/
In 13.681201256488524 7.735267606116207 5.371297826337535
In 9.398169723109222 11.383731666348293 6.317500633108851
In 12.451425685150621 10.812707505843939 6.249396875235306
In 15.476937571951705 10.081895075499462 6.712706396702869
In 10.719034309905355 8.168695873909986 6.270918468596932
In 6.772901392499882 11.509393981804617 7.938786744473287
In 14.145192328175543 11.82230152172764 8.770296597858383
In 8.239828892812834 8.651392364598246 7.76619733628596
In 13.411403240843269 8.375490894013524 8.485163270203717
In 10.878147451182913 10.433643219968948 8.988429784869306
In 5.444234135643525 8.66462572318969 9.219941547054717
In 9.08919743155559 13.223021079589202 9.08992012546476
In 10.76423440449202 6.966769349126417 9.253957568689339
In 11.9921954854967 13.554879781565038 9.57552035441443
In 5.248643200174011 12.084513666509062 10.599779362415005
In 13.467810650813732 12.881898489682381 12.402443034209504
In 8.189050188139007 10.489438658550577 10.692410650593473
In 8.03180391638882 7.231648502818004 10.52444758625803
In 10.811295276336848 8.960076015641732 11.704790976296458
In 7.559295430864486 13.858667752740024 11.659947571669246
In 13.25445696469117 6.807457551836903 11.333830697840481
In 5.679751645043236 9.469847875516818 12.263929552883322
In 13.658869102292398 10.000568578637719 11.105417343917658
In 10.426655584804271 15.005421031347046 11.7955282166334
In 7.110314733780903 11.790158514804094 13.91458736989318
In 10.29922593352836 12.038504171112601 12.45129071239048
In 10.214497362442467 6.055771952185807 12.605539514505057
In 9.029877514288577 9.461980064797826 14.086043634703252
In 7.087673320233646 7.027891382268907 13.420135554276499
In 12.22989728944545 10.215561570824056 14.193066114794345
