5
Energy = -7.89399303 eV
In 9.040160580209418 9.52862689175877 11.078551480348452
In 11.469701091500923 9.79119797133152 7.850878581262192
In 9.689761730763559 7.755172615708771 8.911635581032318
In 10.821131567120176 11.526463259265547 10.047574456829382
In 9.405180757082793 12.07557064727027 12.826805940982895
