5
Energy = -6.87877185 eV
In 10.565955138510244 9.98335318329757 12.004314600018235
In 12.585312659945751 7.808489612153361 12.353205315590719
In 9.827632539824329 11.249622456603316 9.387061428070549
In 8.602447891877489 12.323186935206945 11.978016888931494
In 10.51636824087277 10.935471111838796 6.4907400069435806
