5
Energy = -7.68465773 eV
In 8.721076460588074 12.011239561676074 9.919775116078881
In 11.975262193867376 12.051618271915245 9.852209225860145
In 12.02193423845289 8.799628501762554 9.923408530001119
In 8.770937421701587 8.758906158558277 9.93443583972495
In 10.39566989632628 10.432036994967829 11.88947543017306
