5
Energy = -7.94701723 eV
In 5.751532541163961 4.520089117007242 6.416530463798195
In 4.945908909658246 7.323320355050448 6.01114109248935
In 6.946890085050739 7.848270589864991 8.179648684500593
In 8.190978452897374 5.194400373529201 7.9258027853036825
In 8.095366704124114 8.38619003962312 5.592928717352793
