5
Energy = -7.94822797 eV
In 11.37727013918557 9.373501760452733 10.258021586854019
In 7.270936073976911 8.619449733353399 9.157684435099263
In 9.662754605942057 11.76389108374375 8.550561102799376
In 8.981628873099423 8.22885658387806 11.526087651859736
In 9.817236460671111 9.004078172112845 7.734998169307148
