6
Energy = -10.58828451 eV
In 10.881230351818756 9.265286563682281 7.789814966967607
In 11.687795461031019 10.750734377914757 10.349205388625634
In 10.758241753352056 7.824180305237329 10.507068969335686
In 8.923029333967122 11.66730782871097 10.665498756452683
In 8.10490226267943 10.105430710207964 8.145217294880156
In 8.011636956382898 8.75293830974748 10.909142112051358
