6
Energy = -8.04218924 eV
In 11.80297108394623 9.39165249157303 8.816664782501249
In 10.546147385296349 6.684287737216296 6.216334150671868
In 10.014446321827851 10.590596107208647 13.591375293757801
In 8.81632458538866 10.72448637891457 10.31947563828383
In 9.250979791488158 12.88821796333908 12.479463292886633
In 11.713435164720371 11.861277032962636 10.716467458927605
