6
Energy = -9.87979247 eV
In 8.099008276617498 9.042219923878019 8.91738183016418
In 10.240118492629216 7.698369555264346 7.497913525208963
In 3.7785333787154487 6.399530764085041 6.810560556107529
In 6.021078592949125 8.22047974291733 6.0413744390602835
In 8.648579666790676 5.714768573593198 6.084903063138194
In 6.797906518041701 6.5164141459624325 8.239696611238715
