7
Energy = -13.13040846 eV
In 9.385481881134076 8.88349910071829 6.713584996517261
In 7.303950434262386 6.94050847714241 7.859474842278588
In 8.345275240283627 11.064971675612554 8.291151242795337
In 6.661547402776005 9.152331733997903 9.747159416187948
In 11.067488306174539 10.285847285086744 9.382652696417074
In 10.190560493418484 7.107106072699741 8.960290289536859
In 9.162084293009036 8.682123705800617 11.1620745673256
