7
Energy = -12.40701801 eV
In 10.868938709134827 8.712615797508612 12.950203046416012
In 8.328391359636479 10.209700079868954 12.547018963128979
In 12.887612349427377 8.85463005924253 10.764513667693695
In 12.376026558505433 10.578864298042793 8.191381560885509
In 10.107632825939545 9.892691184974286 10.097033953574547
In 9.821679847844306 12.054000549823987 7.78022541257749
In 7.776504884331032 11.8427346810139 9.932619079828472
