7
Energy = -12.40496255 eV
In 12.357560272535963 11.701066329638968 9.155477790404692
In 9.474578247325162 12.182430229438687 8.024647117277476
In 12.89310570151292 9.564792129461493 11.151330994284608
In 10.110347587584524 9.692616559159786 9.645540324688042
In 7.138461819543635 10.760427884410998 9.194668329111286
In 10.623430315721244 7.863449203519639 12.047570643989568
In 7.722613544192986 8.608892793900099 11.165842114117403
