7
Energy = -11.84735143 eV
In 12.387833764055225 17.902338211533916 12.652595317805856
In 12.072441159777084 14.872965506130827 13.18208494126328
In 12.48776234926932 9.536800950229834 15.305289648718501
In 12.335407229696283 12.399560026498945 14.396693369930022
In 14.879119314036172 13.08542316694922 12.778183791961744
In 15.016189872142236 10.438562646035844 13.89825373563732
In 14.602929322827103 15.775752962212458 11.758253282613168
