7
Energy = -11.42222138 eV
In 9.505162360729146 12.206998484668853 15.31956938605109
In 14.50465857136166 11.443229483103467 11.990371053801331
In 11.922906527185319 12.600957015053153 13.25020820281319
In 9.725659802771666 10.68775232017988 12.645536199609575
In 15.677623667928955 14.127832801440972 11.329341952559417
In 11.673323523073977 10.816662586010988 10.479407377807107
In 12.78848033813152 13.858245247481344 10.525553170520686
