7
Energy = -11.940299 eV
In 6.0187937142635395 7.08318040718905 9.119298
In 8.951471098948238 6.584811611238003 9.119298
In 12.074432963786208 6.65798580796247 9.119298
In 7.453749668189319 9.704606270602607 9.119298
In 10.313320405702791 9.232094004475256 9.119298
In 8.021810731668536 12.526907961124664 9.119298
In 11.001507570433443 12.045500090400026 9.119298
