7
Energy = -11.3023406 eV
In 10.2614680637382 12.189571623858493 7.829336662194995
In 7.8452907079439065 12.133916439396252 9.873622582329086
In 11.48426121828936 9.27531936231572 7.53682999314871
In 10.176867074784534 10.173174773209158 10.144465804187233
In 8.675285440081618 10.972471489582935 12.694930596080923
In 12.321558220979721 8.0073397656939 10.324493251492163
In 9.87792791618263 8.067001027179014 12.338686302547627
