8
Energy = -14.85731434 eV
In 10.889148562473796 9.571997221502123 7.987376119328931
In 11.40582304546384 8.191796304526054 10.890578026175511
In 11.867906208199638 12.545169317560855 7.733509274197192
In 8.98175779980253 7.674388113145597 9.216393245247762
In 6.871548717588956 9.027671975749131 10.93940055225567
In 9.464290208594408 9.931020221763061 12.287927098744875
In 8.61633330383274 11.007426865299035 9.34188268532196
In 11.363773333499982 11.44854633195008 10.5822504485074
