8
Energy = -14.18144873 eV
In 14.348805508820728 11.216365210695933 11.46914659691865
In 10.434494581809538 9.711994754480786 13.575840065382328
In 11.122684091008033 10.967952902368193 11.017307069797802
In 10.517771071151794 13.555487559201215 8.504317268924408
In 12.935184896295528 11.942989444282516 8.917823947195455
In 8.586484056551718 12.174371243259493 10.263854660522991
In 7.796724291602682 10.347697840785164 12.455844224425768
In 13.049019095835613 8.723628741253384 12.441881619939322
