8
Energy = -14.19692251 eV
In 8.439928780386639 12.430591507152894 12.048280629333783
In 10.677933527149266 10.793090617376244 10.678201173892708
In 11.68125508295873 12.734496804379335 8.724109688179965
In 12.533511847141853 10.079230900301976 7.758851299865219
In 11.448216756461138 8.146024405724898 9.716247544893216
In 9.722965162283993 7.701763110658565 12.106621597556874
In 10.626462627065225 14.208891207952881 11.114486284688496
In 9.89938281021692 10.279984040243747 13.538354363554353
