8
Energy = -14.28071514 eV
In 10.754291430065718 10.412339879367163 9.797277013207449
In 13.778947535697293 10.451628334044193 9.623354547007562
In 12.455438396022128 13.25673777068448 10.747209722716704
In 8.912094442476672 12.54859932794168 10.738756739783684
In 10.944725629091682 10.227997941836101 12.723074139580936
In 13.981972463741052 11.108680401381276 12.502633499067002
In 10.546361296555537 13.626355798923266 12.9611829812844
In 12.524005450282738 12.265497189754662 14.80434800128496
