8
Energy = -15.01817159 eV
In 10.08359989195091 11.583188220236224 10.736878356196433
In 9.431028589319215 8.874872606530223 11.769860457987281
In 11.41321984447392 12.152221542484195 7.741981135327823
In 10.782533381771929 6.195742523926169 10.485694937968649
In 8.625149901610799 10.384620235184205 7.714350390148571
In 7.26812088541897 10.741120330344875 10.316330713397969
In 11.159858184486383 9.26326873485074 9.066190518779212
In 8.290148329804452 7.85862481528045 9.222372499031026
