8
Energy = -14.20585461 eV
In 13.168008227132889 10.18154261302062 9.062159415490248
In 8.262473933951174 12.792853437208496 12.16007798112136
In 7.351685351320857 10.675767640988674 10.31329282513777
In 10.257798142165706 10.483361206441671 10.36704312116761
In 8.12853357086565 8.352650874953198 8.613321409590835
In 11.207050598610627 12.616443429289841 12.16988708262591
In 11.059561412535093 8.03551817222003 8.88335720647636
In 13.173429059216543 10.335960743473683 12.043205233325924
