9
Energy = -17.2746655 eV
In 10.186261921729786 10.588863433364535 7.925807093400409
In 10.059314153952986 8.144879076182512 9.376632482061044
In 6.983579475893683 7.874908234998706 8.374847078570461
In 7.318754759931687 10.341060319973732 7.000374337431796
In 9.236915544119856 6.157662585874819 7.12589175892024
In 8.256107881304294 5.512569971784161 10.410536754542754
In 7.893837994764593 11.203781604588025 9.958377176813828
In 7.6457153121803065 8.666890598717787 11.331562428073173
In 9.527489328457806 8.617361279126486 5.603947890186288
