9
Energy = -16.07600127 eV
In 13.066500920865113 10.09494004319515 14.602175146116897
In 11.93765411530153 8.52786169330999 12.378383310430149
In 11.43545379777552 12.424974445331424 14.039902864377046
In 12.640399421156495 7.867069865369877 9.598676521790471
In 11.217856484053973 11.221295806841404 11.253650996563056
In 9.755869393430194 14.519068868949631 12.969995184054156
In 11.078561504564666 10.029893355808474 8.463635148815142
In 10.415189902934676 13.909716136624565 10.166301244766336
In 9.422666616472773 12.328194360759884 7.889019310259898
