9
Energy = -17.03475727 eV
In 7.569280300213926 8.624525766899794 9.803554273696259
In 12.358916985306287 8.559237613219038 8.595745237141738
In 7.892715133737338 11.162159549500638 11.254222563118132
In 10.411777764539211 8.735115552747454 11.194134454140828
In 10.654601096960157 11.247153973681765 12.662568462765416
In 10.034810911510528 13.18014803687538 10.132257934367802
In 9.722876240825816 10.677179054872184 8.519748382653317
In 9.728668123755664 7.217897297501853 8.237437600504471
In 12.484370940975639 11.10806463456369 10.082118659647968
