9
Energy = -17.32954042 eV
In 11.710128322309417 7.727021240698014 8.160278458322729
In 10.438365285259211 10.552867045403481 7.8414372765311295
In 9.013876839222146 6.6190223844799085 7.818626305498729
In 7.770472706390118 9.267038706177125 7.602124930651571
In 9.311156498737569 10.82388134910298 12.940369680318321
In 10.121039181364646 12.333197892881381 10.298266702342039
In 8.76296667504378 8.233588482348866 10.6142918925107
In 7.508818150591206 10.971851902330991 10.060752944103603
In 11.372178738403964 9.48053339389919 10.672854207043406
