15
Energy = -28.46072553 eV
Ag 9.825736724190074 7.844945634340262 12.400007395166313
Ag 11.7792710558178 8.880254925948538 10.601760158691413
Ag 11.585064999913477 9.815747097964383 13.297767853105709
Ag 9.288253647751421 10.579511160504842 11.870826975460469
Ag 9.042759748334916 8.718061675460307 9.742123227410652
Ag 10.831213393403425 12.51078734140764 13.423371792250503
Ag 11.910614113609489 14.317152458425833 11.47900021544478
Ag 11.106775315059066 7.930277768697563 7.9731464343883705
Ag 9.252514390982741 13.26817713047424 11.268321716426694
Ag 11.889820130706124 11.625619046603173 10.996840370462165
Ag 10.904471238238264 13.380452835635717 8.99808861957585
Ag 10.646598485487281 6.3823198393879395 10.201335652511554
Ag 11.266358729669095 10.642711937670416 8.482876666634807
Ag 8.721662769687986 11.481376518834347 9.252119038288525
Ag 9.029525637938582 9.703245009434696 7.09305426497224
