30
Energy = -62.05622815 eV
Ag 14.218747052338117 10.874086091460926 12.06057197516388
Ag 16.271616947618092 12.096985364220902 13.539301057274741
Ag 13.011405751731129 10.796895390132484 9.136585986104983
Ag 15.419723618991142 13.254675398372662 11.161952743908918
Ag 14.41182861000438 13.202751694187269 8.644576878550007
Ag 13.308232098728755 8.432238488777024 10.752838114828537
Ag 14.296532898515691 10.833418569808364 14.98509543506414
Ag 12.785417694372004 8.869353609891045 13.615249970779924
Ag 11.865978857554975 11.70434437899392 14.005950473258947
Ag 11.510925449408106 10.349061464913472 11.582283834562322
Ag 13.811348032860037 13.51306537292246 13.43846009343976
Ag 11.686214535081145 13.425207288822945 8.150190605645983
Ag 12.538319073606715 13.062534085165742 10.917809027786214
Ag 13.351081610361208 11.820889739478961 6.498736453605938
Ag 10.817441441483984 7.643283561067659 11.872391188138506
Ag 11.80147642106113 9.89753627595347 16.067050995205737
Ag 10.83201028827174 8.812459408562578 9.251146552347036
Ag 10.971539193352484 14.082507552228499 13.040184048785498
Ag 10.187229433750016 11.626272386339378 9.650371592191716
Ag 10.893191426205192 10.695269637084396 7.088641436040193
Ag 9.942756518743895 14.220086372944888 10.397416175756671
Ag 8.995230801584507 12.812023678414107 7.440458626315285
Ag 9.41134368249371 12.093246784762615 15.117654101240719
Ag 9.977671650235258 9.571908258993847 13.868091892717096
Ag 8.75271902329608 9.531284656534213 11.20796254698869
Ag 9.0895732140043 12.116357637654536 12.313423782555992
Ag 8.34262766336635 10.096009461559037 8.352981319254791
Ag 7.5909685008745384 12.553294072248095 9.862591241830524
Ag 7.3828902897845206 10.510921985003238 13.976196061723813
Ag 6.3197892369878454 10.785605540385035 11.51527121458176
