24
Energy = -48.62326422 eV
Ag 10.409939097845566 12.214160543582251 7.654366332606312
Ag 10.812327775621936 7.9115174001067885 6.059482384795295
Ag 10.215451056417184 13.83553412392002 9.91252402927742
Ag 12.399696225689718 11.93258387337843 9.557123961462938
Ag 8.456255760906883 11.596065130847297 9.521760027207804
Ag 7.981837548244734 13.37304776487347 11.632942462002086
Ag 12.514315680382296 13.891430847837096 11.628158655208487
Ag 9.163211106326644 9.704772706940863 7.450657961528045
Ag 12.043635888163143 9.900270930187013 7.562788418646345
Ag 10.15044537342839 14.655254456408016 12.819194535194985
Ag 9.932620969987278 7.267777968669113 8.6253710364859
Ag 10.581932879080561 9.700109222760611 10.066859687331748
Ag 7.916526607029093 8.832802851217341 9.909516057559737
Ag 10.504084702380053 11.850768536809808 11.877521951967884
Ag 13.473703519549101 11.33238778708226 12.072647524509298
Ag 13.395602168274895 9.31096396003598 10.045503389078448
Ag 12.678706786755797 7.218793048168374 8.10988560834163
Ag 8.853839159713644 12.619639725769478 14.186760829589854
Ag 7.9943187282951245 10.544529512955538 12.148012761687724
Ag 11.749841381259934 7.061016593319325 10.715392416898528
Ag 9.49259329891399 8.132301374347398 12.169211108090584
Ag 11.75811874347208 12.517843694985476 14.187586406269316
Ag 12.089086271150006 9.073603494509497 12.605771622425614
Ag 10.034524125454737 10.126149918023874 14.110245024550135
