18
Energy = -35.31794289 eV
Ag 6.610821040305043 9.67403164984733 10.74096368972041
Ag 7.655148236360245 12.247109967707308 11.724060006924478
Ag 9.999360387402042 11.708191000132322 13.393162854734978
Ag 8.358552393298018 7.50367418874062 11.832292935697236
Ag 10.251769427786522 12.560746668717481 10.61010968634584
Ag 10.436098530680813 8.786576561101088 13.485355580716712
Ag 9.226595710949837 10.046446616989842 11.38969068177583
Ag 8.61759602397437 8.412907450782537 9.125955372398986
Ag 8.198658079488185 11.250410175121226 9.036153458307577
Ag 10.93540570797742 7.890634947804969 10.770481752834927
Ag 12.002482212239418 10.426424279005467 11.75124588134963
Ag 11.240191612058297 10.397007033916335 9.016214888257087
Ag 9.435975694721773 9.881589103619818 6.891013747619818
Ag 10.102650326251483 12.55032800275475 7.572094466693018
Ag 11.039113649563394 7.776983280396239 7.9239725440652125
Ag 12.401779871521608 13.074824792123977 8.983189193346478
Ag 13.268571601544366 8.483242731670058 9.504046688143324
Ag 13.95848326801405 11.083820160127742 9.948401300958654
