29
Energy = -59.42821420 eV
Ag 11.813653223166348 10.1062974743902 8.977060799497098
Ag 12.384542077256954 11.476291440389511 11.379070105397123
Ag 12.869143960004221 14.537128472323728 14.08940984035185
Ag 12.504008975536621 8.690479207613274 11.411742445840117
Ag 10.459688077887852 7.541347375401811 12.889553591230307
Ag 11.291223969022154 10.332510725709298 16.14582953514148
Ag 15.242394513649602 13.047400553699635 13.608594249261026
Ag 13.516980846915109 12.383811707104083 8.61953775509035
Ag 14.038674874891168 15.086509671405572 9.346708547716602
Ag 9.791192430258715 11.899254592926761 17.853717936218484
Ag 12.74142662362213 8.795678205974436 14.2448724617394
Ag 11.279993788620395 12.092557897755588 7.013014602051366
Ag 14.65718207587046 10.32438185015873 12.641395388920735
Ag 9.937388219487092 12.343981919170343 10.356910437623302
Ag 14.463972895019806 10.107351306431621 9.87839802662582
Ag 10.571067892455318 10.229001885897109 13.39776618641861
Ag 11.226603828947468 14.231646355784893 8.793228496899086
Ag 11.269087504867755 13.27030776638719 15.955713621675025
Ag 8.99353961523022 11.833433778668603 15.203306874872261
Ag 14.920536311458761 12.78056373182724 10.928872468088374
Ag 9.259523140077642 10.605628341018022 8.131739925149446
Ag 12.939480159619011 11.679853084307837 14.34711348513797
Ag 14.643463124310818 15.401275778792339 12.069666064786098
Ag 12.207884205825973 14.29718230908743 11.336738402461792
Ag 7.382929366407649 11.040573720324009 10.056372944222982
Ag 8.263978267900763 11.543397856682878 12.565179633550974
Ag 13.062927016281398 14.410485093250472 6.794894233940446
Ag 10.568426092321873 13.061816559906815 13.188613449331053
Ag 9.731210583157663 9.51346391773329 10.837669069624186
