38
Energy = -81.04475302 eV
Ag 13.603968808780373 15.701224950044873 11.374361567908968
Ag 10.109881539543899 14.852908347869766 7.99762301377451
Ag 12.8661242718815 14.581286054779286 8.779922815705788
Ag 15.01920843119688 13.517892797675666 10.405925087373223
Ag 10.957167868647417 15.519379327736212 10.61015009390432
Ag 12.966873465876988 13.929625927186944 13.602438403570648
Ag 10.872779997493819 12.25840985120048 8.458949957544684
Ag 8.840170004745117 13.740636524053484 10.272672398210283
Ag 8.195475446712807 12.718771218907326 7.7074542441299885
Ag 15.596058856392776 14.602075845800158 12.992849090616259
Ag 13.628859523190009 11.81387343391567 8.536630361640217
Ag 10.20696873275066 13.836116370773762 12.731213922184029
Ag 12.286400656989818 12.888394886444674 10.936102347774993
Ag 15.468051537980344 10.776118429723148 10.32005820439112
Ag 10.858496366854673 14.581680012303357 15.376032635741742
Ag 14.716861846285406 11.922274832536418 12.798572436968358
Ag 7.18164854651978 11.505385867295393 10.04854873030697
Ag 11.576732602697232 16.293083268760853 13.258098100732486
Ag 11.77056891881983 9.724705651730673 7.70633019737632
Ag 9.011412069018283 10.117011519825265 8.394914468650239
Ag 12.517001987123896 9.96248075197283 10.38450618289321
Ag 14.972515290740704 6.49183568133501 12.224865204048497
Ag 7.757259816093533 12.53064438382336 12.664610222170952
Ag 10.461580051762878 8.08502913010358 9.569881090940095
Ag 14.489243162986073 9.17372569732685 12.356797525131011
Ag 9.904011274394602 11.199156836080634 11.122818660917291
Ag 12.017296102966894 11.114597734900785 13.028071696345128
Ag 12.257185161256315 12.147833323090717 15.695933257540686
Ag 8.133314029641943 8.948026365464315 10.898078633986186
Ag 6.0882561822582755 10.325277804104893 12.340472316289244
Ag 12.567725524931689 7.117206375419869 11.0763215750647
Ag 14.77491147495706 8.1491721093487 9.780064220176314
Ag 9.588311856074991 12.1082986109481 14.83371374635874
Ag 10.629881725782118 8.646870166866107 12.319279904153342
Ag 13.828058391083978 10.028043176630392 14.884799608978058
Ag 8.523082216327643 9.916168961579382 13.565436990915995
Ag 12.767750320036393 7.593752375076174 13.862981442037453
Ag 10.954823953466901 9.546943411627515 15.048437657811077
