36
Energy = -77.03673655 eV
Ag 7.401693844540091 10.297600632943375 12.968778503216159
Ag 7.21288342621986 9.18948651889666 10.33525386674109
Ag 9.06052268877381 8.303899527218114 14.183234636823984
Ag 8.275302481230911 7.05765549415344 11.781430296177852
Ag 8.201466974044896 13.112733899026253 13.18272021942856
Ag 9.617376569005444 11.09415393334483 14.507350281076114
Ag 7.97858553098955 11.801499614909874 10.66781004507129
Ag 10.888857780818437 13.849358805675799 13.938937882228041
Ag 9.812934057555568 9.431105493027768 11.648643337205558
Ag 10.97901594397423 6.984882727593009 12.530345055631596
Ag 11.73886891301841 9.114834159798885 14.252425408154137
Ag 9.44721877733367 7.821232163001513 9.257078569580079
Ag 10.190298341982283 13.503859662393594 11.19527978745684
Ag 9.022825766493533 13.370160275285752 8.578703149773956
Ag 13.603793424782234 7.9446853529047665 12.481276265469221
Ag 12.025115885922043 8.077710009025532 10.21413240763655
Ag 8.783184375532791 10.41595741002307 8.287001293593054
Ag 7.69971432083081 14.622484681369388 10.809694635698092
Ag 13.530149542008916 10.434540476288877 10.839816535980317
Ag 14.209025544250194 10.412350237315403 13.647029226331098
Ag 11.453542213172298 9.287993148077971 7.7836415343861
Ag 10.015872825404381 15.909808049064795 9.685331327043658
Ag 12.284839647715604 11.75999839572512 15.206933391315067
Ag 9.607810184241666 15.913021615395014 12.511078992516623
Ag 14.220268673252583 8.886009546849944 8.655716128698142
Ag 10.789306851006328 11.982647259559648 6.980147395284987
Ag 15.903368401536312 9.227505219779031 11.520549703021427
Ag 11.0009291501914 11.247197430502878 9.786875874617218
Ag 11.591154495831898 11.443324213969696 12.518883811312973
Ag 13.316287391438845 11.57065835388441 8.11475610807936
Ag 11.813223242425662 13.950035813204995 8.788480323221357
Ag 15.787905843260639 12.030358573236995 12.018972736070092
Ag 15.790332613454131 11.207809859463008 9.360963324198746
Ag 12.276115432866545 15.213162454875928 11.495422901394718
Ag 14.00894911905826 13.323126608638594 10.317593293110676
Ag 13.60332649688101 13.342145328684511 13.171392366761715
