55
Energy = -177.56236609 eV
Al 15.878941616087268 12.54249316714867 10.769361262212444
Al 12.428754246213222 15.487985891589437 9.34642762101595
Al 14.927647182312427 10.545727892323784 8.93291557089647
Al 9.715645538419786 15.209134703670603 9.941558687934073
Al 8.685417265300588 13.204526742168143 11.376073233566864
Al 12.641311138866852 18.606860580327115 12.903637213041677
Al 11.227381454977591 9.662616060912656 16.04361350979319
Al 13.80450146499879 13.048961042924047 9.135333858547154
Al 16.584729101859722 9.862893042032379 10.902686144774068
Al 13.054378251211054 11.221238215349908 7.116169323464122
Al 9.503780377563485 15.314835676869084 12.904831617085208
Al 7.941776663199019 10.849565844071813 9.914467533298021
Al 14.4685921375324 16.537679444582412 13.286441359328284
Al 8.555206757409618 10.37857609108648 7.3013043191209785
Al 10.408575925884312 11.90111685357935 5.992410733418394
Al 12.321811511351704 15.157723818503392 12.111239030473957
Al 15.609115579953878 8.030969148410382 13.031678322860886
Al 18.136492218558473 9.232433051132462 13.051233555802321
Al 13.601062260077493 12.908510280219794 12.403715648971444
Al 14.131581931517967 8.44288006064521 10.823443192732347
Al 17.207728757473042 11.899408544509685 13.040590324287708
Al 13.375432858171235 14.485831690109102 14.722126068994134
Al 7.349548125886214 11.1400979053958 12.553254126171689
Al 16.334684716860806 10.041179775774498 14.909366772030024
Al 11.563012051637102 13.673887171015798 7.661121648988999
Al 9.649460061986916 12.05900373723384 16.46756260628942
Al 8.321576513311705 13.264056582082318 14.19974742043452
Al 10.819318576252861 17.223747688942012 11.342687397304042
Al 12.023431784920913 10.482511681717853 13.342730630527477
Al 10.181429403930785 10.914592710818772 11.458248323797157
Al 13.659644122665156 17.42959179601699 10.693624973382441
Al 9.483533946785297 10.68708471423637 14.13335778267021
Al 7.1563652219787475 11.167539471097562 15.521378272296612
Al 9.00075877696435 13.025093491489061 8.466040863269777
Al 10.618277344855722 14.389831687578106 15.501725859028038
Al 14.823708760608683 14.993047793742708 10.81177858041817
Al 12.293222489309883 12.16713518809021 15.57660206449924
Al 10.206997696692161 8.112177479573448 13.972301134929914
Al 12.942374845735289 7.9182059306729 13.51486150771386
Al 9.748028896671556 8.744513232689782 9.248129935791667
Al 10.884144796746655 11.138645705731513 8.744619732644722
Al 10.994215869266585 9.336749154103124 6.571521396975017
Al 11.429198373772573 8.471651784654034 11.3682324207684
Al 11.375479563596539 13.144568709275285 10.485115327386723
Al 15.978416328723311 14.292367549940504 13.22808441424941
Al 7.336248263285361 8.75995525193584 14.112247401421714
Al 14.978263562797883 12.358927826910769 14.912239986193105
Al 8.63752025287949 9.073403912901533 16.408766754358673
Al 12.850445996453944 10.908294271002854 10.681122831097909
Al 8.566280582376066 8.70425484093869 11.695819658487844
Al 13.767287462207365 9.846028223035125 15.346541835671163
Al 12.559844626714234 8.870900834116405 8.737607312657696
Al 14.680180832375052 10.56339346642222 12.716905111094524
Al 10.973220136743084 12.957220133706983 13.227853921595157
Al 11.556603276068671 16.56095995499002 14.290131364235515
