55
Energy = -176.27061018 eV
Al 13.890796444713514 7.736985306773063 8.611487360385324
Al 15.528324380192473 12.463878696626002 13.150430928474126
Al 10.560885156709098 10.74467035694888 13.67628395448768
Al 7.287720931818799 12.756381901198118 13.654653253646071
Al 9.911637462899495 9.972576544369984 16.304159548842733
Al 14.337258009885382 11.2972515299926 8.291480493214022
Al 15.757400761411802 9.8961947367189 12.363417416655162
Al 11.89334732007712 11.718774894029213 16.007332515524176
Al 11.250758131712763 14.278636272217717 15.167257930049638
Al 10.191007225993452 9.504109607619014 9.025292676367846
Al 13.779657781828615 15.982539883222115 9.608384207099169
Al 10.999346901430991 16.372229114607826 13.43939834283673
Al 11.509742401877054 16.030237932364336 8.162139217787084
Al 9.811013911033655 6.303226561722847 12.257090651930575
Al 7.838024019795738 8.833940942488086 10.290551502655278
Al 14.37002466351141 10.621469917407033 14.903654931839725
Al 7.790443938722699 13.38375313892146 10.948479353838312
Al 10.453500524622699 8.93783374778512 11.693489754406627
Al 12.470694404074758 13.400012105833152 9.08673375096804
Al 11.37586930428302 7.327388024790506 7.683654123172746
Al 15.257348403389605 13.777108270606815 8.978187747073527
Al 7.805262201416337 8.088198863382827 12.927014179384832
Al 14.067686277066837 13.199475864712518 15.621931209437601
Al 13.464128558238265 15.184855648694896 13.965993177504865
Al 8.880233085414735 16.061038676809552 11.787408744977945
Al 7.843667406894832 10.238786128105854 14.566286642047473
Al 12.650262735777886 9.683935529894159 10.02191911758413
Al 12.010809612121554 6.949114584612348 10.450417449896332
Al 10.006574787870553 14.351196298961764 9.792458483911805
Al 8.134315207623912 11.345636760014122 9.287112443316193
Al 10.399811482400413 12.03136037677727 7.997019192009091
Al 12.922045827297053 9.787014922871998 12.712511182533063
Al 9.273285989275855 12.545200236368316 15.450685423516283
Al 9.485548812230254 6.820162642736197 9.574549618332739
Al 6.565792759635467 15.141895724905943 12.696850534958179
Al 10.016625307166588 7.965016275162993 14.469024846420771
Al 12.619201278684285 12.513781703723302 13.341004866352714
Al 14.346298683044635 7.720601791215121 11.348543651104368
Al 16.49517349065499 11.916866642558766 10.45869624413603
Al 12.32223141498508 8.943512552293962 15.35411720602417
Al 13.779030340141052 11.877497732428402 11.008435483994583
Al 14.680086200143878 8.000053911524288 14.054827059534606
Al 12.086396577006317 14.552536191529887 11.544258464761048
Al 11.02862156128935 17.079439374739763 10.578308238549537
Al 13.374175684632998 16.985161009511508 12.037380500389581
Al 8.733287634013173 15.101082046591474 14.464975194780905
Al 9.947315571649638 13.416855953781896 12.735047049772149
Al 12.259439980814477 6.994122756326189 13.23761188645308
Al 15.561610984608222 9.475702729994733 9.68830146627263
Al 12.633005628427782 12.39447991204315 6.50719739791358
Al 8.419929914631856 10.906280631219296 11.957124183649215
Al 13.613421803791343 14.884744503708003 7.08856462072589
Al 12.194417135884057 9.843419076430935 7.213829838834339
Al 10.87940539675886 11.754242517748683 10.774766534570638
Al 14.850623588422872 14.52205594237695 11.596793205093746
