55
Energy = -173.54436281 eV
Al 11.415962480012105 12.288174805546404 9.487441867135573
Al 15.845805931531297 17.171546702464827 10.019980739084103
Al 15.989119536174684 12.516826382422293 10.40376558072857
Al 15.374009550825996 14.927575979047965 11.465200672124668
Al 14.191687461677699 21.288459245603846 11.82962349943791
Al 13.537186809103185 13.711154176400214 10.024063787725199
Al 10.481017424759138 10.539781196066729 11.207284390672038
Al 11.963338454907698 12.731772596326769 12.185904330063055
Al 9.130468612393717 12.938346785811202 11.373508070121478
Al 17.221257300170535 16.894055470634374 12.374299484036024
Al 17.861223313608097 14.808257549501894 10.35068560095823
Al 13.037653479019443 16.38124691915161 10.419633934536948
Al 16.0354190981483 19.218498825055104 11.875431181287313
Al 13.664652224126792 11.016676138630888 10.540005782816005
Al 13.49174913890721 18.950622762170465 10.829452915630117
Al 17.20241723193065 13.132375896793434 12.684512844314604
Al 10.936411244207752 14.806980896383543 10.69442611800097
Al 10.180835307461479 14.262801958575022 13.621150747618996
Al 15.832839250152702 20.993323468613173 13.930056834762526
Al 9.988670761375413 11.560134466082719 13.734924842869086
Al 14.448062018531116 17.10453289897311 12.601411471925895
Al 15.823962274766712 15.171370815178033 14.103065518232833
Al 19.051553805988384 15.02362956956717 12.950813830126894
Al 17.975766091899843 16.555694708695007 15.072885880981667
Al 14.693124993863306 19.93007879425485 16.128052016073514
Al 16.16362871027833 12.414677219450686 15.081154402461914
Al 12.846555719742776 10.201500383413501 12.921289659405184
Al 13.885720288421606 11.216914121083635 15.233727786212327
Al 11.526863921846719 12.701603177729767 15.534817385965468
Al 18.298716962907257 13.808351151202295 15.304718759864773
Al 20.505147680095444 15.393549380147036 15.167909773631433
Al 10.453621178627186 8.863434757490438 13.23473876686368
Al 12.924933626189729 15.012632174807404 13.126384742477047
Al 13.882130877848885 14.02752141728322 15.530972131084326
Al 11.521785502253671 9.872253572016191 15.407992467290693
Al 13.553419667672317 19.394809508503215 13.679224901364545
Al 16.21767903652818 18.352396450739356 14.49293413336751
Al 14.516512199340308 12.576458761365243 12.846213843028387
Al 11.526508427612278 15.423611445181889 15.670585636282283
Al 13.534533961456818 17.202155497032596 15.148917034491271
Al 19.042864910671053 15.48235485023654 17.373126650215692
Al 14.981228554359726 12.27985084570015 17.48555977459969
Al 16.12421060400006 14.976093028371448 16.787627752679075
Al 12.388132554393785 11.06606115457022 17.585646155782236
Al 15.661746428290767 17.7273949459741 17.12636617216695
Al 12.242116297803973 13.802267068214322 17.921497684469266
Al 16.218978061908793 11.27332457046771 19.578252467265706
Al 13.594050369077191 16.05939635071226 17.554484330527597
Al 18.00899877511851 12.471818563114295 21.10962822701618
Al 17.470643643879036 13.4655519362393 18.570051974693254
Al 13.38258040151478 12.107770491933275 19.762288874247062
Al 14.796066432675422 14.45572423959049 19.265121137718946
Al 17.167747806524932 16.482480012451507 18.949226490268455
Al 15.20178687561935 12.920615988604963 21.501433212304313
Al 16.84012006419423 14.896731264818166 20.993749067388272
