8
Energy = -13.25151725 eV
Ag 10.705920616785482 9.717669616007441 7.425758328360113
Ag 7.9432915234765025 11.502883602687348 9.584158838276647
Ag 8.019693442875347 9.45707693161376 7.764358053809904
Ag 9.959707720956647 9.81296856464215 10.041036211895356
Ag 6.879629311909697 7.122653101806027 8.644650846501522
Ag 8.613871357114906 10.733429701060388 12.137720417547834
Ag 9.510107002085583 7.328666675662851 8.861470044464612
Ag 12.029111388399324 8.172793876060961 9.41882641564751
