5
Energy = -10.13010234 eV
Al 8.309280786976874 6.9609237972421925 7.363667753326456
Al 5.651023504242793 7.6102088650242745 7.074623969921451
Al 6.568926601094826 5.227070794278923 8.113177938520465
Al 6.94736635395247 5.587995124858383 5.406406941261183
Al 5.079195755358195 7.169641751833114 4.596811505250069
