31
Energy = -64.75095756 eV
Ag 12.457101950745237 8.823075471791979 10.020316037550405
Ag 13.077854404580384 7.498895272997954 14.474330515763036
Ag 9.911358169979335 10.18977325794553 9.515415075839943
Ag 14.218321350321824 11.13337556916333 10.35418320451569
Ag 13.894224535291617 9.165256495821648 12.397389644676556
Ag 10.07411629108703 7.267154045737506 9.837654951510396
Ag 11.108202561767541 8.386662656514824 7.541634168596332
Ag 10.041375204605663 10.838264329346245 6.581858612430312
Ag 11.67493139753991 9.84212493274286 14.001803002898765
Ag 7.934231145129312 11.797407779458572 8.299550899935502
Ag 10.543771567619649 12.938152725013593 8.415891860675265
Ag 7.744288744531418 8.55128208546576 10.399415564436099
Ag 8.29964695115969 8.841404980441293 7.711221144069745
Ag 6.919556810436937 11.105669410248842 10.843673212398997
Ag 12.11130772346773 12.714158462680336 6.139023975667596
Ag 9.151436499936318 12.734044084021912 10.802798712910167
Ag 7.661126041071973 12.562832034228233 13.129320864556544
Ag 11.54941630956379 14.22061137066726 10.766734286238151
Ag 13.32558498437434 13.31435231878126 8.695376403411895
Ag 12.48376835419951 10.757338607564881 8.045145897160154
Ag 9.683174380592511 14.591934253620167 12.894128771567962
Ag 11.701100447251614 11.377377720926365 11.436817538205661
Ag 11.35080696589956 7.6668028715992085 12.254618293533266
Ag 10.25422317760137 12.14695579513649 13.943564801917173
Ag 9.283649781109604 10.083542400423259 12.29159556738206
Ag 14.251361082374123 13.825040190557402 11.257710883865103
Ag 12.443302842102064 14.124860247240404 13.399335463448931
Ag 12.572445542133627 12.173814048027952 15.492995304228963
Ag 10.66567690105873 14.29465876559186 15.532190897906654
Ag 14.138363694404942 11.841875610371236 13.16357725811632
Ag 14.240467688135146 9.897809691269496 15.159695716489946
