10
Energy = -17.22661935 eV
Ag 10.27984988489798 10.085574416628116 8.995540016979204
Ag 11.09353779841816 11.298792320198517 11.46189255405456
Ag 9.743182631829775 13.562524557866665 10.987065071007896
Ag 8.35773130699916 11.24948169606251 10.660766876997716
Ag 9.556390954195846 8.92898318930629 6.660247775139901
Ag 13.184323640401553 9.74805145253324 12.085466543898212
Ag 7.600433083085977 10.221251374020259 8.186868657198152
Ag 8.317690376683789 8.504794528843624 10.308906694675093
Ag 10.92598283021321 8.492895228866697 11.243857419336758
Ag 10.375040628496432 7.304289637738624 8.796382511466154
