22
Energy = -43.88012634 eV
Ag 11.429769189574651 9.732078013286873 13.375561046285496
Ag 9.732577992085021 7.599579525213735 12.789180246985365
Ag 8.53874675549881 10.093340993006677 13.514593069758217
Ag 11.373650000327581 12.556243335664016 12.902068828597146
Ag 11.799877705939329 8.205653153944638 10.9755965221594
Ag 7.904706785150511 8.698670373138068 10.940119691683215
Ag 9.596678885486488 6.621212324251417 10.180369067149456
Ag 7.052681147380661 11.333488362040304 11.341257911579364
Ag 12.75302409923998 10.863938917473268 11.098102136367096
Ag 11.589292731630298 6.995512981697184 8.279997191056559
Ag 9.91461485650401 10.794089647414575 11.274358681027458
Ag 10.0148942308143 9.262195735027088 9.01001557822195
Ag 8.879162789790158 13.390984543383547 11.794398626814731
Ag 12.856584063266965 9.527640662234338 8.662184654188767
Ag 11.16548390404245 13.091737443161032 10.107468105914302
Ag 7.993370196518789 7.744658419113143 8.026561821182666
Ag 13.544637195246265 12.263720971427617 8.823898311133563
Ag 6.677244581988822 10.137354473429426 8.857902695857176
Ag 11.123122951241088 9.110784101902446 6.428249785523448
Ag 8.626895166730565 12.150695740891075 9.126602375321234
Ag 11.043109947465929 11.600527434764405 7.769778106106144
Ag 8.606308578200785 10.369390364951617 6.862960725725555
