13
Energy = -8.19705286 eV
Cs -0.712051593391234 12.715534915040498 14.655543776894834
Cs 16.70376408945379 10.54929073184743 10.437291916770135
Cs 14.991902543088955 6.724033716111243 14.383098597921284
Cs 14.813117112744395 15.762471631056943 12.439434654321794
Cs 17.530430687255556 0.4396322041559375 14.67275100002382
Cs 16.454245740739168 15.770108440528627 18.072958436271662
Cs 12.622362645363598 1.6418332944181093 13.827876634924463
Cs 12.767390414654407 15.463912776929298 2.4743913782071445
Cs 13.432234860788174 0.8165242739470412 18.766322460075646
Cs 12.015875394165318 11.493859802999133 12.460058590734663
Cs 13.853069654636522 11.307749384423182 17.154491970378142
Cs 13.698419756499543 13.70672150236783 7.408721556521117
Cs 11.247902796667791 15.835413818738264 16.102768967545195
