14
Energy = -8.94468153 eV
Cs 5.088884407423029 17.516809232224016 18.752484513662502
Cs 0.27270211289424723 17.1025334929103 16.184796516975798
Cs 18.411520597568487 13.667897631642818 12.414558903695134
Cs 16.1521816961324 17.64612534945175 9.782200160479864
Cs 17.10787971425206 1.4730436054664109 14.016324660731033
Cs 0.5185405084697108 1.204793985622193 0.010165672296106012
Cs 19.09105299716207 12.536201358531322 18.38890959768239
Cs 12.366590447313369 -3.976374742421692E-4 13.340321758603817
Cs 14.926147816996593 15.353985875738646 15.73102207063963
Cs 1.0923541967623003 15.882801063141924 2.430114038302681
Cs 15.057927488896537 0.146711395138332 18.722786421028115
Cs 15.49098170237803 15.20326546043752 1.6153648748679361
Cs 16.97815276258933 -0.16814913348382513 4.621180332685062
Cs 10.30063784563651 17.089307934588607 17.79703608940706
