13
Energy = -8.07562844 eV
Cs 2.2798634578845824 16.329146640954473 16.51367119575819
Cs 18.968684429475275 0.10263769533673905 12.28726459491594
Cs 0.5016688582849442 14.257930298772337 11.063680118612504
Cs 17.431212262628907 1.4488113243861729 17.040511786025043
Cs 0.4613630277505279 12.492217138374794 0.5029208522025859
Cs 15.006010746075765 16.389059314822784 9.71432580971605
Cs 16.617983845570365 14.088031970372354 5.190710695712034
Cs 16.68351088122044 15.245538832531341 15.420444498781917
Cs 11.83405088036759 15.429258158856916 14.235348620294122
Cs 13.789818982892443 0.9359919852585079 13.2476376542292
Cs 18.43544163053368 17.34737736626863 1.787320083686113
Cs 14.334443703160984 12.752497430702936 0.26948936132338336
Cs 13.500881572077374 17.75055984269582 -0.07568001209624514
