19
Energy = -12.72680877 eV
Cs 17.535923748182586 15.809711722848037 8.496632570846021
Cs 13.452109045002125 16.32307661872241 11.96217820420816
Cs 17.799797341902888 19.345736601501176 12.565993566024185
Cs 16.9325305500309 12.944481507847739 13.911234617199883
Cs 1.303372518022737 15.63726031860319 13.634397269161965
Cs 12.67314471530222 14.67424215642158 16.826801287959253
Cs 1.9931969950685222 0.40219565512864713 15.559026463489838
Cs 13.427516579740173 0.25719094441388596 15.446854321401489
Cs 17.851776508597005 3.408913110175105 16.05234843832685
Cs 3.007854983164642 16.786427922023794 18.943135240332715
Cs 0.8602783077167013 12.30144972395754 17.6753306426079
Cs 17.320937647959415 17.18436980646702 17.696728524343083
Cs 14.972793896651627 2.5896634950664876 0.06534701039910401
Cs 16.17931900172685 11.051933822685406 18.92663564050809
Cs 11.703364481429404 18.684834074015562 0.1166025225575313
Cs -0.08746517880078108 0.7365893997631353 0.43681475750081933
Cs 19.26344600338751 14.816475689286724 2.0849925265994806
Cs 13.885509731977212 14.366455303223272 2.052894173034247
Cs 16.072359400548507 18.826758405458655 3.6245227871282197
