10
Energy = -6.16033988 eV
Cs 16.435618364764604 17.840356926972937 8.234398739900934
Cs 15.56994509524625 14.636332976199645 12.760281606673477
Cs 0.23758179270488342 17.24735247967183 12.900967579516994
Cs 15.264598559244266 -0.17310236762698733 15.081529341128215
Cs 13.43614912723216 15.350237086871404 17.80474169952741
Cs 0.19889436639401217 0.05619691537190335 17.914123093392025
Cs 18.484583669890547 14.60001390532942 17.8388401385001
Cs 15.421217766777337 19.194192596319194 1.2871912212104877
Cs 15.645834430514633 14.325398614097768 3.29471785984242
Cs 0.11766699981732133 17.229222031440614 3.6952988928938333
