18
Energy = -11.81469355 eV
Cs 2.1534485687139853 4.29059257612357 16.45541580001555
Cs 4.029546951452544 19.54395565332686 16.711644646215635
Cs 0.6544120753408589 15.423814064122789 14.451346959319315
Cs 18.829391929339003 0.5008561852662893 15.091273334501192
Cs 17.46066036256851 5.377112821371057 18.042745187900408
Cs 5.362296648674705 14.296007002462519 16.95078125079461
Cs 0.7333642951163628 1.3314992070009084 0.5315810411623808
Cs 14.931420105732563 16.82978535376985 16.04155165926284
Cs 19.679299331625153 16.341326048798337 19.20643071810462
Cs 15.681255415417692 0.5999870046049707 -0.25696163886972406
Cs 1.0201686888786463 10.83835481129515 18.407290975506395
Cs 13.235036864342424 1.8767045653148775 15.45702046677183
Cs 16.2915616625736 12.158853581768048 17.452437306958505
Cs 17.456128761117423 17.769358789129008 3.690598112713363
Cs 9.530787646461064 18.576384109721747 17.18250054323419
Cs 17.933817853436643 12.535008101691844 2.60784755894716
Cs 13.681605702101322 15.2988443131072 1.1233516706779565
Cs 10.71180569943683 13.230969379916727 17.460076481622053
