18
Energy = -12.08287559 eV
Cs 4.874630758889582 16.129503366913756 18.851606630778633
Cs 0.9437281682383402 14.618374143431462 2.8367437480189173
Cs 0.5450693141737909 12.903284510876654 17.309992731916672
Cs 2.2695548942279458 15.108198789356276 12.9118335319969
Cs 2.038656485874383 -0.12827180032170798 15.760746673038518
Cs 0.8106266694676559 0.13156969429240792 1.6346670775879928
Cs 15.308116608822429 17.194205599827992 3.254523986474355
Cs 15.977650241837116 12.27389252499456 1.14128515782379
Cs 17.349517941946925 17.34219867610661 17.88951103970326
Cs 16.672263847014197 15.70941750333266 13.001090316158425
Cs 17.741694713277532 3.3727754655778437 16.387046406553214
Cs 14.355737986329832 1.8939159247082242 0.5364822051081526
Cs 10.983907614860392 14.09651502934951 1.9025742277196855
Cs -0.8287676378970302 16.941100706648413 7.647546227916451
Cs 9.965568135625462 18.65643160084899 19.05572464701866
Cs 13.116751591254534 14.904219239993296 16.808275536914017
Cs 18.17412677972106 1.0323510190264835 11.7468859154224
Cs 13.556796154171451 0.415549928604289 14.903908118133064
