10
Energy = -5.50176893 eV
Cs 16.620782643212035 5.196271472451131 0.44448456885832505
Cs 15.494794652354773 1.006567134676727 2.897027384061097
Cs 15.589835869735282 1.2190854792145147 15.160122284475706
Cs 14.581894505764733 14.140427951335596 5.029706685766512
Cs 14.497023346351375 14.212391207762819 0.04597032763659088
Cs 14.732960406336609 14.569260327000093 12.61616484164746
Cs 2.551764222121056 1.6060933693869484 0.32122474794559014
Cs 1.4600715779908788 14.608557828491021 2.7833249900863555
Cs 1.5379122588315621 14.798349215929674 15.047195777611002
Cs 5.681917478295386 15.266320473752277 0.22245263610591634
