13
Energy = -8.09914709 eV
Cs 19.363646691318085 15.348916425253858 18.13146001485244
Cs 15.542304641216113 2.8772820683800076 14.872073729951337
Cs 11.053022382251577 -0.014420150964430773 14.183899477127808
Cs 19.713370025619614 19.721704582621488 15.454491806908102
Cs 16.943973949027626 13.547749507882012 13.581471432645388
Cs 16.067253668114617 18.48298374883816 11.931173805500311
Cs 14.56345117147645 12.707407822909914 18.110982683715022
Cs 11.223200926106434 10.728085969992033 14.615646964049168
Cs 9.941239239159566 15.457292207102567 16.70141876617661
Cs -0.22691962556616882 10.453771701167305 16.837051994116326
Cs 14.813791687821773 17.821595650758272 16.982230337458766
Cs 12.2659911236885 15.197204264345434 12.153700860485731
Cs 15.551582945669466 8.034081417789773 15.549852972616963
