17
Energy = -11.02398087 eV
Cs 13.114332341201306 16.176994309854592 14.852786897484082
Cs 16.006811589596822 12.077119411482032 15.324005253663648
Cs 17.638110029371745 17.367364475948026 12.610043230956219
Cs 12.83618986366189 13.354130741077322 19.393775902690926
Cs 9.710716559024567 18.11408411491322 18.50489941220806
Cs 13.511586931217057 0.9702096481756317 15.81439423978483
Cs 18.068095425060775 13.299679964886652 -0.04827364667578475
Cs 0.6458941615531749 13.606447278570824 15.098917121819067
Cs 14.441802392017152 17.864676540524577 0.9558492351664954
Cs 18.494001109501518 2.392423818687828 14.73394090407233
Cs 17.886722849451367 17.856050287396133 17.49085766722986
Cs 16.172348027311486 2.6060816489804215 19.784880608905844
Cs 2.7872264866299212 15.021257763288697 19.403166756769412
Cs 2.2678883142205977 18.90306587574957 15.141275421496749
Cs 19.901373561270557 18.77030548227339 1.8823585952976942
Cs 1.0491870322307526 2.776560068983244 19.008134238919776
Cs 4.788391529649736 19.656418254136156 20.028294220439562
