14
Energy = -8.89018706 eV
Cs 16.64355402159791 3.5969975825731444 13.682387741751423
Cs 12.106171074763404 17.778944094646477 11.69960539884956
Cs 17.07674690154946 17.25096231108959 12.339365823764293
Cs 18.630562365377738 17.826529882753402 16.992599349444806
Cs 13.219561366974645 1.187197368969333 16.191326494257428
Cs 17.531038050535216 3.5319056032068628 0.006540138948213201
Cs 18.57625918621259 12.924737940941524 15.051595458034294
Cs 0.8672662845937117 18.18801587636139 3.064761284341301
Cs 14.217806997007328 12.686429158369478 11.875223366606157
Cs 2.7231686817000145 13.898069573887538 0.6862956164431631
Cs 14.947550784706433 18.204704727343213 1.7418089814140103
Cs 13.854582695693386 15.096362719670406 16.447031790701605
Cs 16.894486789544224 13.089428016333967 1.0371231453655185
Cs 15.908381913974479 8.459675033660965 16.322146151610315
