16
Energy = -10.19377858 eV
Cs 1.8014462655844712 19.196997563058886 14.084076445396613
Cs 0.642482301330603 16.002040214189023 18.191169020807845
Cs 19.093136435027986 0.6418914340794204 18.196286019729634
Cs 0.5165921434345534 13.950637639626327 13.310244447808556
Cs 18.55161727982232 1.468781967298904 13.040958176031568
Cs 18.687731530602733 17.568850944558985 9.827067204205456
Cs 20.002024786708898 18.96603718008537 2.2394945080202127
Cs 17.234484339997778 17.18225885415936 14.9428144284665
Cs 16.53916973936242 16.2271503792624 20.143537055646462
Cs 15.349542447159806 0.9050304813151246 1.3157294121854066
Cs 17.419670910522903 11.603356859213328 16.529503241497746
Cs 16.11423858366497 13.159909258767318 11.88202235875804
Cs 13.842424073789664 20.119737109197295 17.269548066634155
Cs 15.870159785912525 17.41548902085075 5.020971588859108
Cs 11.830328977682939 17.563503119993463 0.8116245313979488
Cs 13.025863839402845 14.192898584335554 16.931467169920904
