11
Energy = -6.55988233 eV
Cs 12.517818851998582 2.53978214683175 16.377411984767317
Cs 16.576429484087154 18.806989982340152 14.557328284586015
Cs 17.218032748017983 4.243239060278425 17.244228046884093
Cs 0.8318416379500954 -0.04517859992432739 18.068797096570776
Cs 11.505762742866002 17.16832480368074 16.604304993530757
Cs 0.8246571682651964 15.3686004944306 14.950186286102548
Cs 15.512583557399372 19.162018021418678 0.28520205893705847
Cs 15.908453735777552 14.425551579865772 17.4168665836867
Cs 19.19886347569423 15.647893991566132 1.617922870852559
Cs 0.5357466706722515 11.122100036503893 18.345778334727697
Cs 4.325219087673264 14.841466011750054 18.77628183775959
