19
Energy = -12.27105602 eV
Cs 2.0651821860981134 15.045147685025858 16.437555097792494
Cs 17.71544203065111 16.170122747649355 17.341258556006174
Cs 0.7628751440498102 0.13800989468162767 16.939322006055733
Cs 19.636415588537833 17.97774374959369 12.699980221954709
Cs 20.406860644519735 12.058387385839026 20.142961980548286
Cs 15.169097036591147 11.813576120007305 19.85235997994912
Cs 19.793380757516644 2.953352323896765 12.836573687255598
Cs 14.261902738385867 16.859444743762353 12.971185025263546
Cs 16.577725564561977 0.2403246033633176 9.60782110056408
Cs 12.312154866420936 13.209454319584555 15.905956118598917
Cs 1.3910519858457806 17.597589049897405 0.5406109154421745
Cs 15.802022700788552 0.645954280373016 15.402874189078121
Cs 0.6457992953893406 14.374110352409556 4.3581332218288695
Cs 12.992095083338157 17.440598859943684 18.720951636856167
Cs 16.71004411594344 15.908355205326995 2.163142435520978
Cs 18.36253263871424 4.894690443477635 17.961345824538554
Cs 16.823980432939088 0.25401778508390604 0.11077950061486304
Cs 0.650263186732499 2.7036771190354507 1.276549235748312
Cs 19.36924352924047 19.88734217771937 5.01311482515294
