10
Energy = -5.87988201 eV
Cs 17.55972728633664 13.073953100217809 -1.5007575982392973
Cs 15.231386809967962 10.175100193298121 14.005228453789327
Cs 15.800048913178173 10.889608964545495 8.835918933755332
Cs 12.128714767478689 12.810683931277513 17.270833716389195
Cs 11.023000944573242 11.985150599790392 11.98678274437278
Cs 11.65373333758628 17.48369361900984 0.3537454355124421
Cs 18.38832314178398 13.900410257045907 12.238998210793852
Cs 14.013673530340462 15.795267636660556 10.351465204987765
Cs 15.252284817242531 16.89965239128311 15.250002639937767
Cs 10.35947392444362 16.735765235699393 14.170027945433697
