15
Energy = -9.68497844 eV
Cs 9.57382277555446 7.661174074267565 12.016973279413289
Cs 15.295735369692668 7.249133293826134 11.486085919730222
Cs 3.8509754744735787 7.250288046683399 11.48395856887762
Cs 12.17480077498651 12.292155585909036 11.516575214434383
Cs 6.969852989077644 12.290971080292852 11.514389626994893
Cs 9.573289477331963 17.20349588926018 11.189331061411426
Cs 12.184568562208533 2.8765898890136867 11.496976932901086
Cs 6.962154435829702 2.8770181148759453 11.49709709629942
Cs 9.573051772265604 10.404766394946384 7.13991815685914
Cs 15.625246947071373 10.806755298276627 7.800713531277099
Cs 3.482479887723957 10.8104279575995 7.802921568960872
Cs 12.229635564280345 14.901494321186089 6.9113695271819235
Cs 6.9206400243067225 14.89906264829229 6.913530448503053
Cs 12.202794605324334 6.025390390598292 7.404765127104286
Cs 6.955572645509834 6.025900709334255 7.400017634413381
