14
Energy = -8.76093492 eV
Cs 15.171351022744942 12.149089122992253 0.9054221093925549
Cs 16.092134053213 9.788169134197892 14.528629336327848
Cs 11.24167355330615 13.068277872393397 15.802736089157117
Cs 1.9581748690431782 12.920527511825048 16.99794321254828
Cs 1.1838217720359834 13.530066827067447 12.063948289974945
Cs 11.511327400514602 16.600062760899828 1.2897238155336512
Cs 16.09704923073131 16.01680719510908 15.932710995824305
Cs 14.399552743935319 14.368592570883953 11.50054974794488
Cs -0.8064133708609279 17.10536925724408 2.0758892061597227
Cs 3.1445237420616223 17.65579859074174 15.164178975063024
Cs 13.973913791420932 2.813893460598062 0.8867973386438716
Cs 17.216191103697145 0.9017366146885741 12.263944439298678
Cs 11.922110333533153 0.2552889997933235 14.837579636518106
Cs 17.764933796791908 4.298888409539875 16.052506932689624
