18
Energy = -11.86359274 eV
Cs 7.522743529384773 17.05608699856751 2.6038147223901125
Cs 17.88071359000235 18.384367078628298 1.091780017191417
Cs 4.3584992496597845 18.564170025699894 8.019058117030633
Cs 2.469546397304374 4.489790842536006 8.049116736256732
Cs 4.106170946308776 2.133687397269793 13.259271587656723
Cs 2.7282333333690176 15.437478797258938 4.373065760160818
Cs 0.8650171124765648 3.4853372353563783 17.812574222544253
Cs 0.4066747608403242 13.22655135720914 0.270524910558914
Cs 3.2939334205755766 1.6189213403124623 3.129679181091345
Cs 4.038058868913806 6.806170031048372 2.467209337414309
Cs 18.271667562118083 0.6397239282558923 6.248312538729564
Cs 16.50294627540584 14.950349213668055 4.769174958732018
Cs 0.10527522275698965 5.535326038950054 12.965118762748455
Cs 12.614312720545671 -0.7422261300570661 3.7161129465933995
Cs 3.5529077115515872 17.38840172917786 17.761913841632477
Cs 5.338642696579227 12.151872331011445 0.8184330596993866
Cs 6.40511347074489 2.8620522969086726 18.019041681844016
Cs 3.809836645608866 7.368100856735949 16.372930688003798
