14
Energy = -9.15090949 eV
Cs 16.90124072556359 16.787869250640174 5.233041077740104
Cs 5.100294436646903 17.669304775571003 17.87757310336349
Cs 17.78463863818177 -0.3059338194078808 0.07041096885333878
Cs 1.2135428829858348 14.821641712380057 0.8218741033691017
Cs 12.526153562843183 18.72283419478253 2.0532849242256095
Cs 2.6322825045045577 14.704099008788566 14.446514677869102
Cs 18.987116862324903 18.96011074659523 14.168635339680781
Cs 14.85990662390213 14.31630228736834 1.0673876780896991
Cs 10.182888307191769 15.930906381095209 17.437237880119124
Cs 14.020472981945453 0.10395577723505946 15.795251508963506
Cs 14.985112555333556 -0.28185178133752165 9.791063001390643
Cs 18.15216740336871 14.986166245030104 10.690560088959014
Cs 16.65753510906507 14.450298788237557 15.753280374350519
Cs 12.52692309046414 15.437341701041392 12.633355603041935
