14
Energy = -8.93750252 eV
Cs 3.1698335142186713 13.210509304212058 16.484077806792378
Cs 2.3471484097265454 16.09165797403647 0.8371916146052413
Cs 19.236730761877354 13.217921666791682 12.909308475504629
Cs 0.2769830152686463 17.72005456654011 15.251629773541127
Cs 18.120845013979366 16.0569243851333 4.195904783709058
Cs 17.88116358328831 14.02168361983844 18.40903186340438
Cs 17.0288212124477 17.5431366867597 9.637166654139806
Cs 14.719233352796302 15.531897640629557 14.330329342577118
Cs 14.855352711110616 0.2428705756951127 4.146883334717934
Cs 18.15205938192 -0.10594502778973633 19.556413763480727
Cs 13.854854193644146 16.887914097292136 19.4010780279422
Cs 15.815140269641164 0.7040236113983354 14.718690061353302
Cs 10.856837148231419 19.231082373824872 15.416350604721618
Cs 13.184889150936135 2.194545531432259 19.38180889993491
