17
Energy = -11.13873297 eV
Cs 14.830778885939704 17.696920896262494 10.39644685139964
Cs 5.142010896669576 15.872225882134442 13.866073169705446
Cs 0.5423964869248584 12.886913881697732 15.20194516668162
Cs 14.912958336532755 18.283887048970637 4.602367654236831
Cs 1.0756523991602776 -0.15245858682518257 4.078938499793301
Cs 17.5050299813393 14.492031128139041 1.9550659823109533
Cs 10.834072709841012 16.136911844733508 14.780510155479485
Cs 14.49770770765183 11.792994417535676 17.325506900536496
Cs 12.26937275394342 1.2148741227769528 0.2623684460498787
Cs 15.977960848837611 16.53654834734908 16.416817343013307
Cs 2.527940952325804 16.895430031893877 18.345250359363842
Cs 12.062981425157783 15.190695884815057 1.2384057279612315
Cs 14.223848552393827 1.7578820372526451 14.396706803022832
Cs 0.4185032161258994 15.125346368144935 10.506348785898142
Cs 0.4713819607467114 0.1180142658916193 13.73430364388006
Cs 17.486382941903404 1.8080178484508282 0.035294583337074345
Cs 14.807400849324546 12.916938394839306 12.444030832147922
