16
Energy = -10.24131091 eV
Cs 17.19207340597891 18.184629798086082 5.243615104821978
Cs 18.68439878736588 17.451025861302217 15.908101512597783
Cs 18.6910437981692 1.66476915677233 0.9428977722046301
Cs 15.280801537239041 1.8652610144100141 16.166283930493094
Cs 0.27576741204402755 15.37373504304791 1.0979115855156794
Cs 3.0210388991357413 18.574408325661448 4.439083006112661
Cs 14.654153425520748 17.4482264683385 0.28230662490882225
Cs 2.475572511756262 6.227419103417807 9.285419409375766
Cs 0.5482710012652259 1.2140677584584367 9.009265232278688
Cs 6.857526984827269 2.3508705150486273 2.555619647123945
Cs 1.2808001433681122 2.7593620255666638 14.109422387181063
Cs 3.4406356432927665 4.806726294252468 18.553964239693606
Cs 1.8082130935124072 4.5431599211311635 4.405673948863261
Cs 15.34957298207742 13.578048192281617 3.5877681184106978
Cs 3.7351054532684973 18.959707987951074 18.39140758474203
Cs 5.659298325400894 2.4991853065501988 7.606071723463139
