10
Energy = -5.66113445 eV
Cs 0.5595690173494489 13.841360439172202 15.203933506158702
Cs -1.7511637851592552 9.942163364520914 12.202198666637265
Cs 13.762469080241262 13.158284050650273 12.079419316504916
Cs 15.083267062816471 11.136382463930195 16.528512894707042
Cs -2.002344284279064 14.273338664135425 0.2520310018787028
Cs 2.3122097035689864 9.081305818727309 15.069276632102644
Cs 18.289357344272627 15.831076963876248 10.96172841301053
Cs 13.6060710406066 -1.068306372680596 11.298346810216989
Cs 15.725950726064488 -2.718588753298844 15.704236626782407
Cs 10.8613805353862 -0.3303492364489799 15.426987986163901
