15
Energy = -9.19908316 eV
Cs 19.62119800171877 18.82929220247836 9.625126568912124
Cs 15.976760195085896 15.341610241298646 10.175997063873531
Cs 10.742521960452349 15.572189964556678 12.073888549919843
Cs 13.63194169241875 11.181381781003724 12.162063071779261
Cs 1.5062905734011025 16.198214461742317 13.689507745298584
Cs 17.224855238587416 19.349146083225996 14.190600188863389
Cs 18.606483219165256 11.934470855582779 13.928590291906433
Cs 12.057517596267067 19.449438384048268 15.446340977281952
Cs 14.696348926691668 14.931706737213572 15.66617013460782
Cs 9.839924796727203 12.305011781465348 16.129523344489453
Cs 19.35734448221626 15.05525260181047 18.207222739580857
Cs 14.338255997766138 9.799784458727034 17.19455335283667
Cs 10.438605157791143 16.18566503388427 19.344019601793747
Cs 15.359572005599498 18.470905222000653 19.362785590164826
Cs 14.684581150260646 13.585408848911415 0.8858117728409572
