19
Energy = -12.74856128 eV
Cs 13.837958478998264 14.122864311929568 10.553340719798195
Cs 17.75762909161734 17.60908349460443 11.012988185427437
Cs 18.3529185571452 12.680516974801371 13.237844131121767
Cs 12.615470754141038 18.841299069748253 12.21415699231956
Cs 3.400677491035999 16.179637499322467 13.857226303358972
Cs 16.25247938475186 2.735584309297083 14.63777735787732
Cs 13.293943257797894 10.705631160901413 14.241901741635674
Cs 2.1732600762956156 2.178334507661373 12.733700190413755
Cs 9.820665478489426 14.90769657302096 14.332405362402058
Cs 16.1108133840262 16.275442098684938 16.275425917846416
Cs 11.704876515360295 -0.04751835133935027 17.401359037485
Cs 1.3831811981963649 0.5251699164693525 17.612336904052473
Cs 17.166419122709957 9.845319887464811 17.607243205980012
Cs 1.555246474737449 14.025227490131032 18.3470908378588
Cs 12.477094958942905 13.295700418490815 18.69893559115859
Cs 15.85210721207934 2.3120728943093196 0.816062092076465
Cs 18.782630265136255 17.559931879368865 3.200331351008043
Cs 16.673836324814967 12.870809169127362 2.857341536505921
Cs 13.55861720388229 17.17479794171146 3.132357771831904
