13
Energy = -8.44050543 eV
Cs 0.26619724937768063 -0.6490773266560101 14.133507617907766
Cs 15.924093806606653 -1.0348158902378726 9.432992065625736
Cs 15.006460250024109 14.10679326410878 18.05462075870281
Cs 5.3066972117039075 17.335375732369886 16.596658809239507
Cs 15.286396164621609 13.461182103214128 13.077690191709364
Cs 16.44796919330401 4.022164293872663 16.59966045189333
Cs 13.45843643906089 0.0932547022725048 14.385302292099471
Cs 0.3812780271807384 -0.1657958872061192 0.9301646270578973
Cs 16.09410056956703 9.152857087463754 16.327135403390372
Cs 10.004050864808185 15.185629076360694 16.846312115171063
Cs 1.5985204406339546 13.337267415418292 16.960397615699865
Cs 16.075252497836757 15.311301908785058 4.760122518103737
Cs 13.448182587953122 0.4139260214486529 1.310453340250077
