12
Energy = -7.37425693 eV
Cs 10.250985856263497 16.964252040090226 9.979991
Cs 11.891230583284907 11.935074753731483 12.6294799078382
Cs 8.116213638518753 14.919821723931378 14.291201354193163
Cs 11.843768361481247 5.0401602760686215 5.668780645806832
Cs 8.116213638518753 14.919821723931378 5.668780645806832
Cs 8.068751416715093 8.024907246268514 7.330502092161799
Cs 9.708996143736508 2.995729959909772 9.979991
Cs 11.843768361481247 5.0401602760686215 14.291201354193163
Cs 6.944090460635847 12.220245907068577 9.979991
Cs 8.068751416715093 8.024907246268514 12.6294799078382
Cs 11.891230583284907 11.935074753731483 7.330502092161799
Cs 13.015891539364153 7.739736092931422 9.979991
