13
Energy = -8.50362455 eV
Cs -0.2717519471190757 0.01319602831679907 17.43946444149603
Cs 16.582115025526814 17.279443891783046 8.61371371436828
Cs 16.73982867197424 1.6589019153343372 12.915020458228462
Cs 0.5503655586842086 14.265670065952085 18.378049290700833
Cs 17.060648498147472 5.441598580641045 17.325615747938688
Cs 16.20991482220475 11.602747333631077 14.993799953697684
Cs 16.744727633534684 10.064084925157655 0.7635364378810072
Cs -1.7872220465496103 14.387887838077205 4.128137333172668
Cs -0.04343793632807597 15.917819967181623 13.344619455811774
Cs 16.585874664373108 0.14718588615871947 3.01904379262646
Cs 13.85777915075663 1.1140466978996149 17.543121113550615
Cs 14.691553902285872 15.36381429107302 -0.4360777829361423
Cs 13.995016483167317 16.44338320939827 13.724000310546868
