15
Energy = 338.12340555 eV
Cs 17.020542344256878 18.782989432924953 15.139901552718754
Cs 18.041723642535974 -0.6322983665996982 17.50079223874231
Cs 15.411998339717735 -0.23950018824257985 17.056549878570785
Cs 13.988726092321265 18.116318333443463 16.788120748415874
Cs 18.803204102658757 -4.000969546867501 12.61795579668584
Cs 16.223654675502313 17.86610410836717 18.471301184077063
Cs 17.02198070019862 -0.41324830092909404 20.118853892343978
Cs -1.2843912976864174 15.544947624374473 -6.922962662911961
Cs 17.188808277974736 18.10428321200135 1.3688079194819829
Cs 18.592462351451122 17.898919325455342 19.01878852014016
Cs -1.4477993041233197 17.321551826736872 15.896064328840026
Cs 16.510754518598066 16.230649454465297 15.42539323150644
Cs 14.47871344616531 16.247495328200877 17.538285035604773
Cs 17.925314079803943 15.483427135734352 17.14664351008208
Cs 16.80616428921006 16.147834268318924 -0.22306806918177927
