17
Energy = -10.99725932 eV
Cs 3.603365997880189 19.440068493889886 -0.2513860951235686
Cs 5.79411657122477 15.8667571513743 16.37929226999944
Cs 1.6102852714192624 12.623189783184078 15.68835860655251
Cs 19.124606920202556 16.30224810333329 18.34896990940955
Cs 19.308324572887884 2.46956177127837 18.59213601263967
Cs 1.7453841987423155 18.9113976345063 14.594108002630474
Cs 19.042965111634604 19.031663821694266 3.0417458854376114
Cs 17.085032960163186 9.649937257056376 18.07866241234545
Cs 15.998417734274184 19.50502748953746 15.430789245891203
Cs 16.278643747541373 3.587138451104147 3.1508970211106146
Cs 15.710692372458738 13.90542195094215 1.653374006596813
Cs 14.491411640138248 4.281018131060328 18.050608499846074
Cs 18.055150649676655 15.287588292859937 12.835782729902231
Cs 14.215473936544669 14.180624999740846 16.683976782232417
Cs 14.468746707227309 19.043155527996394 0.5512460211647623
Cs 10.543190436544474 18.43732770021661 16.745028846383946
Cs 12.89990128394824 16.260071033239583 12.249797863767235
