18
Energy = -11.97444829 eV
Cs 2.012153224222369 0.9392781824168508 13.597289150204027
Cs 18.071153913738858 4.6410789513274295 14.692893443294224
Cs 1.6491659600387036 0.42081592810405805 18.761455733417908
Cs 16.71179356419666 18.868286823768933 12.800359342397241
Cs 18.485568835552915 5.006952157863254 0.26196967617659245
Cs 0.9062541246590214 15.646080686450818 15.802744447987617
Cs 13.067311134467474 2.728766091645628 14.446214334720551
Cs 17.138492863833022 13.579731650627862 12.23713746528579
Cs 16.194705229167145 0.23881939143102981 18.075221124535044
Cs 18.226861460838695 0.15120562016896283 3.408956706175054
Cs 15.448269363441105 14.85096037779996 17.198198559927864
Cs 10.888840759365825 18.22214599106182 17.099999167893493
Cs 18.233033917156188 10.199243605563495 17.233214844949988
Cs 5.765643597423441 16.432467829126644 18.49946286162178
Cs 0.40586328127485083 14.82220161656357 1.3127538541797303
Cs 15.075727072793127 15.491693624045617 2.8396582255886984
Cs 17.932798889433318 16.449329625531984 7.631689238921713
Cs 10.731754589646847 13.904623891324144 0.26445180968115783
