17
Energy = -11.05148436 eV
Cs 17.76223351977884 12.408756036721696 1.5893704525057897
Cs 18.88230369768602 17.823074230631693 2.1734230099072063
Cs 2.1482691433533763 13.882009216158536 16.88444016634135
Cs 14.151721044240261 15.677941240793462 3.525253938414506
Cs 16.98241058569445 10.727456533183437 15.706046714104138
Cs 12.882046068032885 12.184487858642843 18.605182981097947
Cs 2.4225265745161417 0.030891314316144006 16.965459043321232
Cs 13.899563352354566 1.476113457675398 1.6219397738744816
Cs 17.22668692561538 3.367340113682308 16.857579313715167
Cs 16.343094777786654 16.74534190849538 17.16002251116266
Cs 10.452164975999779 16.754404263526524 18.520774178958774
Cs 1.3646975777466455 2.42044409852586 12.542891253461457
Cs 18.239501079827296 14.731159933980162 12.342466384245132
Cs 12.267560112450779 1.6305741912561738 15.785147218466607
Cs 3.9309056400398954 16.662232235592874 12.683280053424674
Cs 15.913807083341757 0.25199660625177067 12.263964629586226
Cs 12.926694542145482 15.10420683171145 14.023132230934262
