13
Energy = -8.03758131 eV
Cs 10.152643726040536 10.723652565054481 15.105293873203454
Cs 18.794844485266296 15.081351345210757 1.6417334681236264
Cs 10.271851027957942 15.490219281040595 17.156006749694747
Cs 14.377202330623739 12.433787807279648 18.38732338994989
Cs 14.135234607536079 17.111072422459117 0.9582653435942591
Cs 14.718376332688711 17.184812577363026 15.449149542521889
Cs 14.128805269591643 17.394497804621082 10.159672053206805
Cs 19.46614543552128 18.409391695603073 17.383595008368292
Cs 18.973478513226965 13.445096226082619 16.332198198991236
Cs 14.946293426039928 12.634572704705212 12.913296356692744
Cs 10.096026641921073 14.586389435545518 11.82398954387411
Cs 15.918438740801207 14.814416758529209 6.129664673161476
Cs 18.909277330734938 16.4627637269741 12.05837695798594
