11
Energy = -6.30137281 eV
Cs 3.0031152165882333 17.905180245028628 15.788779793173404
Cs 1.8047421639416545 13.836769910191025 0.5201663083286996
Cs 1.3094601867809461 13.28168442811731 13.594796210762135
Cs 16.717103449340346 3.5430957983068487 15.84957866861918
Cs 15.844763891518364 10.822652594302857 16.462279395883286
Cs 16.308615410753774 16.32305426150456 16.2267789769331
Cs 0.006163397096628568 0.6448049945104526 1.8896987951421331
Cs 14.368454400067256 13.838729064327111 12.189480148498506
Cs 12.552988473286943 0.5343787320855656 13.590399611033126
Cs 13.042649345966991 1.176866587785274 0.5155657455949268
Cs 11.260462184607652 14.776838332014414 16.61330192389141
