18
Energy = -11.93072022 eV
Cs 3.9720342663173094 15.411370300269693 15.844175304937592
Cs 1.8502858071418322 16.985398158602813 11.133790668817088
Cs 2.519660877480301 1.3604817288100797 15.551985628001317
Cs 1.0817507640356703 17.466636616028936 0.9385996081555958
Cs 18.43445235741717 12.69501203264343 13.801276404680443
Cs 1.140090126737628 12.145778268785376 18.85891411526065
Cs 17.60055864716151 17.48845926642623 14.839366023608758
Cs 17.70102286443243 2.7306419061663356 12.285619984745956
Cs 15.703142695923196 16.655589537739313 9.941516057909638
Cs 16.930268144918998 13.675100183990628 3.957608927417991
Cs 15.843041336757087 15.566168587344558 18.436506343832296
Cs 12.870302023918068 0.7949920557193743 13.428505643703945
Cs 15.98216868138667 2.314181681392842 17.824316243919707
Cs 15.360480537072545 10.521471050491078 18.052234134539006
Cs 14.862199870635843 18.55758532695147 3.400402235120211
Cs 12.602205779104679 14.798046675723374 14.670827990586327
Cs 11.608727698588782 13.90236244605581 1.228231130908274
Cs 11.315660176743828 18.825303285506745 18.400263914030887
