16
Energy = -10.12924698 eV
Cs 0.7592960942679443 17.98140593651196 1.292552315633189
Cs 1.6753344350018171 19.2634995596082 16.707293179805642
Cs 0.738380640157878 14.013696044986593 18.124985789427413
Cs 17.83871275413638 13.732489995933468 1.553535762638997
Cs 18.603119792710153 2.0587301364876613 19.767417518273962
Cs 0.748927956982596 20.055135315783154 11.82720973243112
Cs 16.20975415219687 19.678944874328312 2.834570801043699
Cs 14.17423074876371 15.575580573715664 4.77937409210119
Cs 17.49534062653035 17.611081131516887 18.34492507895336
Cs 16.475554881409412 12.588349086374889 17.08564724951791
Cs 12.901949854470956 15.933482669089823 20.121931184423648
Cs 13.771235023393723 0.5044056982000815 18.757002082488704
Cs 19.117677648323568 15.641328641792091 13.504047810383382
Cs 17.211774738698963 1.0155184036831466 14.51834607682876
Cs 13.781106980315101 17.268027479438565 14.623476742592876
Cs 16.192777932201196 18.357408872005177 9.883078668009583
