11
Energy = -6.83336326 eV
Cs 4.4855347356531565 0.6169772962803923 -0.7046902955355083
Cs 3.8437598824011974 15.642939448885643 15.31044774107904
Cs 18.534407171502956 1.9115405523295255 17.0509719164702
Cs 0.12751916111829856 16.23998919674233 0.12600075725888485
Cs 18.473027914437395 12.512933911278324 15.482739352163799
Cs 17.80707601081219 17.175411293124135 13.789924657147163
Cs 14.956665283630068 13.065254070459321 0.40295219639106983
Cs 13.345417507389131 14.362031680616708 14.745922669149904
Cs 14.303854395621418 18.10969843650787 0.024040042144864812
Cs 13.317073945456844 0.6218497268204382 14.501507646906052
Cs 9.058382984922071 16.98093843058598 16.963720596240353
