14
Energy = -9.30617226 eV
Cs 8.756451823957049 11.634792554385578 12.75375639950672
Cs 14.261829128185365 9.945072966462575 13.971149417811613
Cs 5.032027673756193 8.852375434745554 15.348822264959471
Cs 10.032778390642006 7.42030297111237 15.591984631143184
Cs 3.1310677364286272 10.589086131639146 10.598737326982452
Cs 6.909250546726639 7.064922240534545 10.47022870869271
Cs 11.948957694910467 7.5898491820617355 10.023438376777527
Cs 8.271257907241944 11.670894364674371 7.571543184966096
Cs 17.131799679932932 9.542473010130399 9.183094224842725
Cs 12.887441745519743 12.893593524017392 9.758189675361571
Cs 13.110104517616254 10.120719107949917 5.2937220119249915
Cs 8.258454036632788 9.802663763293463 1.2993375068708277
Cs 4.2202647070076384 9.113870303137467 5.582820849880719
Cs 9.078182454355716 6.789250574595703 5.583044420279124
