13
Energy = -7.92361295 eV
Cs 13.01754843405645 17.84354099836357 17.40241987074182
Cs 17.83653687746946 16.21691036145355 16.04486229036993
Cs 15.299303848144163 13.805918808973274 0.7198822581882423
Cs 16.128694469221255 2.6438826040811896 14.671186889335031
Cs 10.022075859899898 13.393875873830305 0.15717414840898802
Cs 18.028047564272796 10.777802086942366 15.830562096169668
Cs 0.10967662056019183 -0.5321716400578287 11.733414732948724
Cs 9.062373473858921 15.233829153386388 14.78127340414659
Cs 13.44974128183252 12.717077997296215 15.2200089701224
Cs 17.87939665421621 13.887383365146059 11.354714822245851
Cs 13.966152294130522 17.529241210283473 12.33062240026909
Cs 12.977172954784859 12.688963514468204 10.141057176530795
Cs 14.802492488840663 7.615188695907008 13.127535866772735
