12
Energy = -7.21844718 eV
Cs 3.9775164051924574 16.191190082039554 0.9752322801754734
Cs 1.0100571245930674 0.9907389376549328 18.1725849352236
Cs 16.95856452491901 5.092981853925367 17.01658429602698
Cs 17.5308902792204 0.6677144219637626 13.687222075883563
Cs 0.11994578842140392 15.500845021368423 16.30816289595926
Cs 18.519875921828838 16.71050074418367 2.2394240380772366
Cs 15.192052863526161 18.94748124743316 17.80730738218392
Cs 13.38296173698669 16.97840534537358 2.7847163252134393
Cs 15.189069366982425 13.511362125960899 18.56713575348473
Cs 17.244457076571443 9.958755168676594 15.479042436409838
Cs 15.056710155153556 15.087862506755693 13.558887811807862
Cs 12.201738447145043 0.027707777021862112 13.066947637923871
