13
Energy = -8.32542277 eV
Cs 4.72485700132147 18.798483540886565 17.4197657487122
Cs 1.5373088216079414 14.512501866453926 16.965205845878728
Cs 1.5398312407813204 3.8239279047900006 17.643091295914665
Cs 19.142352563942882 19.180178789863618 15.133757410384392
Cs 19.51427760527708 19.056145133435027 0.4723280362960447
Cs 17.771722638397623 9.544237576972243 17.450188373141582
Cs 17.53242948884668 14.237651023546457 0.6935306316407511
Cs 16.33703393793699 14.961624173436723 15.07908860518883
Cs 16.208516444604 3.806301678442189 17.68498585568758
Cs 13.946707774793724 0.07745110656197729 14.456455080215308
Cs 14.395984968665255 18.216720231552646 19.24003242362382
Cs 12.983975772821934 12.70897691307809 18.221370879443466
Cs 9.841118300037797 16.852141999387815 16.452843097599725
