17
Energy = -11.06756006 eV
Cs 17.738761655402637 14.074521940687475 10.378789294391291
Cs 14.48201523399755 13.020883432242082 14.697507504488582
Cs 13.754414096821419 17.17145842973016 11.324388653415461
Cs 18.27028291443174 0.613370941625765 11.06227341098241
Cs 0.10978430247808953 11.205632754992916 15.976734093003351
Cs 5.204190582748359 16.348478741420177 17.613958465643574
Cs 10.136016815827842 17.286972425077273 15.502325769353277
Cs 0.17061703952445728 16.504829026699007 15.1526150654128
Cs 15.613180238481558 12.092160688174229 0.881005300369587
Cs 15.000947975500024 17.00869565678526 17.66369931180143
Cs 10.908796431727724 14.355657849953968 0.7925780423478485
Cs 13.641250860030057 2.314956584874158 14.061784106055539
Cs 1.3001550468799297 13.88735729581821 1.2331869112751157
Cs 18.42830540489005 2.687551362952194 15.825164231390849
Cs 15.853802073583157 15.83428897213945 4.887227685513204
Cs -0.18975770933304362 -0.3564364676354553 1.332830575365153
Cs 14.489171778065618 2.721321505761244 0.27202553250104883
