17
Energy = -11.14336652 eV
Cs 0.5771855413658147 19.58894403864947 13.537320490406874
Cs 13.11055144732357 -0.5495695586600536 19.035696202608896
Cs 15.457975677347573 17.082343545580727 3.17648116167539
Cs 19.439442710182817 14.097775455831352 0.5461371349613101
Cs 15.873461617845054 2.0614590864801565 14.929252616403364
Cs 13.524140047955363 14.21325417074432 13.53441341067348
Cs 2.486515346604025 15.152778260919966 15.733863495709826
Cs 4.1161788889930655 17.27229974163797 0.2689503008516251
Cs 0.4256998609157537 17.807461711543723 4.441820972349775
Cs 18.070067146627636 11.988415044957275 15.92784561719955
Cs 13.820388885220167 13.901763870790397 19.090877469835608
Cs 16.839528966780094 16.95308348881638 16.055445925084967
Cs 18.918128799322634 14.89435211655476 11.344565155530171
Cs 19.29895287357943 -0.14377583290521323 19.332891750444464
Cs 8.969827631981415 16.023555021699732 17.390127677275096
Cs 11.736996552246616 19.18425082251537 13.831664003937155
Cs 15.886102123592861 18.899441890677817 10.37379073293673
