10
Energy = -5.91334724 eV
Cs 0.05028127812785788 14.68831471658193 10.99545620281565
Cs 15.591789842844394 16.23063014405171 12.465318823561892
Cs 19.820868506839812 18.018884237846095 15.20475672589719
Cs 18.57116024680884 13.070177386280273 15.755088455324577
Cs 15.014138279921704 20.01317921941301 15.866732636473408
Cs 13.914438925867712 14.906468373967224 17.253807556881483
Cs 18.8284477881428 0.8705980341067834 19.247174789689673
Cs 18.29778606301153 15.819180284134838 20.009956628888094
Cs 13.926114440129254 18.651166127219884 0.7892994984982303
Cs 17.633963198004178 19.380390046096327 4.045237057056296
