15
Energy = -9.96164983 eV
Cs 8.517486982389457 11.316702383277825 12.61797999247247
Cs 13.551362730407387 10.120714983812574 14.503012226063818
Cs 4.208331212166637 8.05108500397037 13.69864282746163
Cs 9.283325073170637 7.185320622981196 15.549472733712665
Cs 3.9488834505481374 11.442059075436879 9.642413842226771
Cs 7.53172220407294 6.666042316182938 9.938565056571148
Cs 12.473878886068013 7.710153039767683 10.077545428994911
Cs 8.793415390915253 11.557115086572905 7.406822137413318
Cs 17.32966094514052 9.798260897608543 9.963822091938013
Cs 13.017281844860266 13.155422129896884 10.104651757416743
Cs 13.69866435676528 10.622178173234941 5.46658862367331
Cs 9.573381343857665 10.212772359938503 1.379822081874172
Cs 5.0785571135122165 8.755530765442561 5.049985169394981
Cs 10.10558275172585 6.778366432767591 5.334018261383011
Cs 2.516969579972581 6.256781729108722 8.89516163497561
