12
Energy = -7.53713837 eV
Cs 14.11336218004658 13.37557266838033 14.319224588318779
Cs 11.11491827433976 17.773159638699322 16.058968213782578
Cs 0.3901230130453657 14.131416193033566 11.668878338897597
Cs 12.73936566236541 1.9795596940488502 1.1725810450545695
Cs 1.474530500343048 -0.10062778419387682 14.69207430978953
Cs -0.08310526651266806 14.026619195564255 16.910889716244505
Cs 17.540524984453363 0.3921765974800173 0.25242118258508023
Cs 15.413691438639862 18.314506029666603 13.775187545827704
Cs 15.282334086626502 9.513796415675314 17.795411181640066
Cs 18.116755750632123 9.437454519062783 13.487700168995715
Cs 16.093194516802193 4.481719156402459 15.791492542536261
Cs 14.278429263607045 15.20051483059127 0.6268810997095763
