13
Energy = -7.93453252 eV
Cs 1.0980430493417221 0.8943671992790154 18.918333168926377
Cs 1.9410941881555994 15.350996660714252 1.0912938799348455
Cs 16.680621172455197 1.9114174738284775 2.912752581606768
Cs 17.95455186956396 13.08750853429955 15.464003821009415
Cs 16.293004491267265 16.693126169189814 -0.12749726605138884
Cs 13.114874263362259 13.200239646835293 16.919192918222244
Cs 18.640304740669723 17.09264798782983 5.319624695166876
Cs 15.338033073419743 2.2133202069030964 17.283406612763372
Cs 11.77096080731291 17.95160804760964 15.042301401107288
Cs 18.79762535237656 15.030229641470465 10.26342471366961
Cs 13.684332417213385 14.266799223648897 11.873450242372655
Cs 2.31824022659498 16.716139168693743 15.343770837665112
Cs 16.877475599002434 18.23436088132291 13.813638467285543
