15
Energy = -9.35445298 eV
Cs 11.545315574495115 13.482202917641748 6.691502122443251
Cs 10.066307904840166 10.264677366375812 10.146341009401748
Cs 11.007124111612606 5.389814341787006 8.74513768599626
Cs 16.496540522598234 12.113081857991117 9.618849795804316
Cs 14.762909672869112 7.785677802274394 11.29423970351762
Cs 7.21121585389349 14.444165011779045 10.456621640814479
Cs 6.014640635266875 6.419114880946341 9.343200498660481
Cs 12.43715830682395 14.660633927983486 11.788325644686841
Cs 8.972769482921052 12.169220095120897 15.512116271613698
Cs 4.87047878800636 10.266185939117845 12.831951504766785
Cs 14.0074539052807 11.210602508980381 15.17418593442526
Cs 9.347099710222048 7.0923738748632426 13.78637541917085
Cs 13.98611580503635 8.98566998746874 5.967133024237747
Cs 8.718973730975105 8.733845088398269 5.008856569100806
Cs 4.48386404069218 10.910701899271977 7.563131766426238
