18
Energy = -11.89105094 eV
Cs 18.616950117210102 0.7096382037936292 10.186923334712937
Cs 1.3592213640107498 18.27268317049906 14.459921220248152
Cs 13.9261555729623 2.3429931115760483 11.489504460689373
Cs 17.430087046912124 2.5733365084475 15.549156470788908
Cs 15.306724787096499 16.74674524813554 12.268482829999252
Cs 19.065243104721674 13.38953069515295 13.799881131042257
Cs 0.41267940911820417 18.92251224899597 0.26128736571969075
Cs 3.651974208923389 14.766678802638099 17.587674622462096
Cs 16.31988005733892 16.504204397339173 17.38757184379537
Cs 15.827040009597045 17.316884049742185 4.051309036795687
Cs 12.170210457029492 0.1454500027725533 15.805833278918096
Cs 1.495627862912002 9.894501209305094 17.167893535442325
Cs 14.877117683509725 1.747321274701545 0.6670318791079369
Cs 15.9359495985274 10.551748237905043 17.03283914416641
Cs 19.06625724098862 13.629152676309689 1.2379645539290471
Cs 11.089662038304297 17.468065189937615 1.0847284386358722
Cs 11.876146722901423 14.332253749121573 16.23444521266547
Cs 13.662220567460961 12.98919939814741 1.4996716177780047
