17
Energy = -11.36285038 eV
Cs 3.8806591005745164 17.306612949523743 17.185178131886786
Cs 0.9416413113664789 13.147487101386833 15.059607506845587
Cs 0.6158144410534495 18.031902732496206 12.838415795640303
Cs 1.063021097234171 3.239829860729067 16.648662080481262
Cs 1.007693696032506 0.5108487277416767 2.752500779598629
Cs 17.656308255128064 12.437770051404096 1.091982636588575
Cs 16.911388150699615 12.22512246248979 10.880949507070556
Cs 17.229638480576515 17.10102280209389 17.589341564969303
Cs 16.11728903051749 9.09312262441868 15.842460345129147
Cs 15.297315071788104 2.1376048809545725 14.340396888368131
Cs 14.23333502553627 15.162422713604535 14.05757154601605
Cs 15.547466542022692 3.1243877774410973 0.8843950773623611
Cs 15.236791150711444 16.528030346931015 3.668147916276231
Cs 16.381401922686198 17.293461476712327 8.736520861195212
Cs 12.765077373899567 12.88519388542953 -0.16034583953608442
Cs 8.499980859617878 15.047678753972763 15.99272751077569
Cs 12.074108752912531 18.261170156999146 18.102803628319876
