19
Energy = -12.6914243 eV
Cs 2.4790617002855337 0.032469153137610805 0.27513149507210877
Cs 10.88328233257982 2.3725018950523418 18.601458558912448
Cs 0.6239669691668372 3.625213067633934 16.55258409718328
Cs 18.619457778355 17.751061955525163 3.2927638537660275
Cs 15.319935759531566 3.929335335835777 16.149237351913502
Cs 13.36939978444427 18.55517197956856 1.3389304444082222
Cs 14.594327591932817 14.489058276872974 4.4687290212457125
Cs 19.14179590017476 12.557051670474028 2.6189068758059815
Cs 18.325163700902404 10.099075952312532 16.94771616776837
Cs 13.101681077794327 18.859580176716587 15.445275899927486
Cs 16.13077073721273 14.717751463880255 13.917546294306046
Cs 15.159779324165074 14.06166046344584 19.03083075395503
Cs 17.21948095297877 2.632795783773726 1.088399032486637
Cs 1.3694312540761213 14.732243447985919 18.342500160133188
Cs 17.76645718473494 18.464398034113223 17.774862176373883
Cs 1.2060393952481931 14.077533890173823 13.100351211116193
Cs -1.7908217521694374 15.837462281174366 8.683944481283552
Cs 17.89996757851575 0.10928451403119009 12.933785675938045
Cs 2.8467664676593567 18.798334467512703 14.99981245640666
