17
Energy = -11.37454361 eV
Cs 1.0590549299893108 0.2888690313424139 3.5443200143767335
Cs 14.999670668577325 16.29524664165656 4.87876257491325
Cs 15.38620804894877 3.1356823356907446 5.270581505203578
Cs 18.118194010227995 14.061058249612058 0.9387808276207902
Cs 13.635002452493936 1.041676447422113 0.5894951195604293
Cs 17.210584312590715 5.147664173817542 0.6531385370838878
Cs 4.048276617826949 3.2920564030203265 -0.11145584372997037
Cs 4.339691823531085 16.179961610718557 -0.3897995060248581
Cs -0.011211886533530788 0.39010573281740224 16.79155655497057
Cs -0.29917454491428236 0.5233936796230438 10.586668730096784
Cs 14.981488846080325 16.02935328899346 14.328036121322743
Cs 1.574384420132612 14.317806038432506 13.913310547568425
Cs 15.113893454788492 3.395113448640703 14.19977531070112
Cs 1.5567858532059669 5.131134041010499 14.040926919752978
Cs 4.436128810314266 0.5653638593502112 13.593065227159467
Cs 13.00633457691062 14.192765092012271 0.4138970626803749
Cs 17.48629870891857 9.853180847707515 16.15916143213111
