16
Energy = -10.13715429 eV
Cs 4.16567882591136 0.3611142324858645 17.0790216556297
Cs -0.014521766775797595 3.2613379081518454 -0.17692049873646426
Cs 0.8013945413197996 17.29275541650901 1.9079272466796775
Cs 3.408400687769613 14.433832916010688 17.174187821906134
Cs 2.448899835259294 16.65336385215827 12.542728316550964
Cs 0.392030446957241 2.176754190485954 13.67463349684588
Cs 17.72230947316923 17.18167611711125 16.65081558221098
Cs 14.87325315404218 0.8640239448986831 1.7698439437630569
Cs 16.1629881780596 13.504157803640696 0.3962710096337695
Cs 11.499221727830477 16.94573544733426 16.778777851529906
Cs 18.72192495689509 12.514481118249279 13.62252082235065
Cs 15.776863459971922 17.291322010010756 12.346132400147216
Cs 14.3978046003027 2.0253182286377593 15.83576571862513
Cs 11.136593472455683 12.057808171403247 18.874785404511595
Cs 12.275251961602851 15.928513353180099 3.0061837191903784
Cs 13.767705746911663 12.599336087109519 14.50180065742413
