17
Energy = -11.18816104 eV
Cs 16.799341368904667 17.269254806648433 11.585894552887057
Cs 14.433191224714355 12.706037329062044 14.449452968811068
Cs 0.9330144787138138 13.07657736191158 14.022566842190628
Cs 3.111502263447475 17.66771694754917 13.35181284162462
Cs 13.617698795336986 2.9763984734402325 14.566103119675216
Cs 16.856556585818062 17.117136400540787 16.47198318999846
Cs -0.02635843179327489 2.8376969891591672 13.747527886743574
Cs 11.85194979699022 17.02362794215679 13.63253105258912
Cs 16.60684691339454 3.558050312987423 18.702518485941077
Cs 9.945636924114286 14.019912676934908 17.38881109224183
Cs 3.9154073624003227 14.977248161221416 17.939267527671998
Cs 13.646340890557427 9.276164714261173 18.195396865696548
Cs 2.546368753393052 1.2199688354752587 18.099845533075882
Cs 12.396627097580053 -0.00934309918000048 -0.1158138625845537
Cs 18.21356088481283 12.026944881509635 18.767535122535744
Cs 18.365486232797153 17.127112473071975 2.253012139212013
Cs 13.892712655907681 14.235378590339492 1.8038405502187165
