18
Energy = -12.08186327 eV
Cs 16.614429131952786 8.433058403039746 15.401821881757881
Cs 1.0931874976312708 13.328747507503039 14.556301243429074
Cs 1.6451413223400961 14.019815752870237 0.2947478997666647
Cs 12.49525305923139 12.071247841299495 14.006340881773355
Cs 16.19976983812632 14.992851243771895 12.038576940457023
Cs 15.924221278230613 13.313123415418781 17.748261228658688
Cs 16.869564092075915 16.116070250417433 2.717239893850183
Cs 3.215832018884905 17.880393457969813 16.775780457862208
Cs 1.3451936112697187 0.08534219222778418 1.8184150844718077
Cs 12.23938879769994 17.530858040692134 14.54977168125059
Cs 17.318731069142512 -0.2737224062958068 6.956402549590903
Cs 0.5231125866935615 18.425681474100738 12.192309418501425
Cs 17.30515582753953 18.011696380253603 16.8859368639193
Cs 12.886513595795321 18.58591281004421 0.2664475563479785
Cs 15.413412981807404 1.6572412928541165 11.923989012455374
Cs 13.461343992687315 3.328557716809228 16.369160393530176
Cs -0.4230156094999551 3.217404251062031 16.02059893549529
Cs 16.345787927921922 2.716127166609536 1.5743259890620893
