18
Energy = -11.79161201 eV
Cs 1.8021919500423178 19.527764552679983 14.581524771277044
Cs 19.212571532532817 17.601985125524138 10.281379968757633
Cs 2.7075655976972612 19.698630576951295 0.03058791906830706
Cs 0.746309066059127 14.326204833396158 14.482877435227882
Cs 16.9169366760045 2.297850113980626 12.790500489181333
Cs 18.539384280366622 2.9426403048359773 17.561780088366174
Cs 16.20710426139527 13.321789507065056 11.421427202123402
Cs 13.753926811814443 18.271173578521488 10.770339112901329
Cs 16.34833899767452 17.338310268355013 14.977313536075549
Cs 11.785863522059909 14.812844820068943 14.333769725794344
Cs 16.202168565743552 11.672239627774314 16.35841810877927
Cs 18.451985370759576 16.682954841222276 19.048570763343683
Cs 17.733629636384507 1.382322609047708 2.482632442097005
Cs 0.2757683636480006 16.609639603243053 4.114131114354741
Cs 13.899674372210361 -5.850340860180006E-4 18.722728416300733
Cs 17.320169083392386 12.35102085125534 1.6481848767637104
Cs 12.784448462921894 14.55766171864938 19.36612713672303
Cs 14.816133110707902 16.993083690490938 3.6033475412651663
