15
Energy = -9.49442799 eV
Cs 18.600311449667604 14.270506767175988 2.867296840560571
Cs 13.579614900821214 12.881113674496836 2.8409125293295907
Cs 16.567536942647376 12.645678147589305 18.078461694073386
Cs 11.130051842605566 13.969399281735138 17.83120022152618
Cs 2.560603926443808 13.76747164572795 18.86322001011983
Cs 0.1529491538406062 14.406649894026325 14.110011391633586
Cs 14.300598783541131 17.522663322209414 0.3957276651136296
Cs 19.042629499923542 17.783308688917117 18.19425591553684
Cs 14.945493258554924 16.16897315049556 14.556653063167213
Cs 4.262201579950186 17.784044864628996 15.438860473049477
Cs 10.51408426397469 18.897476128841074 16.00192451458
Cs 19.00407103538899 19.29340759860889 12.544071600557622
Cs 15.613933675364137 1.5029186029876278 16.431078988363055
Cs 1.2417364522653918 2.581252552160305 16.255122483585083
Cs 13.694839229053125 0.6791468097016028 11.664918775296606
