14
Energy = -8.98451465 eV
Cs 1.699691018973329 15.39498870652446 4.119545751221887
Cs 2.698979624197026 13.963746902730717 17.088547827646874
Cs 15.438806306684558 0.26891384635816257 4.132376231665246
Cs 16.306867629188233 15.261989491310802 14.282366090584052
Cs 11.792859509838376 0.4327272780338515 17.48495009623632
Cs 5.846345576020446 0.12371148523252812 0.26670641125547606
Cs 2.4577324549114237 0.5017526496069891 13.845978800560442
Cs 1.541714309409142 3.74887162949369 3.1221817429862795
Cs 15.639361752210101 2.769116309920842 13.743675288983377
Cs 15.012436704759667 4.7760544786974855 0.6774582228260067
Cs 1.430694467943482 5.307482934108326 16.022828724297632
Cs 15.784868398241219 13.726117551579641 1.192848166799078
Cs 17.975265517832813 0.2830720846646187 17.992656611982262
Cs 0.4635196072138629 9.3106058544225 1.156319266196095
