17
Energy = -11.21151164 eV
Cs 17.007666174043507 2.9917920771120214 18.62484115721502
Cs 0.42462310306188866 14.35267132653574 0.9450585501726836
Cs 7.200464081720137 17.95146409742031 17.31635417125614
Cs 2.464095782660746 15.50465471491714 15.514390267456955
Cs 14.703660962758752 15.376656753874311 2.990442025346678
Cs 18.201691400775033 0.0016407438815041694 14.281951314780128
Cs 12.919530572807224 0.41363620712107646 1.753602956440463
Cs 14.146440855938536 11.45251429590433 14.276884612322387
Cs 12.780384983780696 0.8002710046117318 16.31843949860683
Cs 11.50433519465354 15.11483665325112 18.0238451806332
Cs 18.135167106214027 19.223318395424947 3.0059384248839427
Cs 13.35061558460184 16.414384905448482 13.05752198932483
Cs 18.087387736337917 14.41568987968552 12.244027847852214
Cs 2.0295025207949653 0.003485910373762742 18.761710244402952
Cs 16.538759361565145 16.388769817948713 17.59589952909941
Cs 19.181467355920226 11.025873550867717 16.17827717735698
Cs 15.12176411488917 11.274001986870688 -0.28026827579966435
