14
Energy = -8.86535677 eV
Cs 2.740300876368603 1.0970383852222192 19.474207623719167
Cs 17.83115133928063 3.017156540590574 18.225308917602675
Cs 18.484579045524377 19.194296834752485 2.6073142703141676
Cs 4.847493387844381 16.858318000679063 16.309259667559783
Cs 15.467401677309661 17.64778823130293 17.827793251265227
Cs 0.16000340718508452 19.469246923632184 14.928583254593834
Cs 0.5334157296218278 15.742113118596166 19.075712408149137
Cs 14.680513648647082 0.9038189749459615 14.011775771127796
Cs 15.610255696582945 14.278712514350811 1.7613266210204002
Cs 13.899843945721832 15.338765144750342 13.0238116560182
Cs 15.07016230949592 11.913070004138874 16.713391339325202
Cs -0.8387817633595628 14.414277479259656 14.247546988979988
Cs 10.965585961778656 14.264002111267084 18.631566531150735
Cs 10.01201142923878 18.00764132498756 15.210975415568717
