19
Energy = -12.5454097 eV
Cs 12.380343734694174 18.72263134786994 1.2513395823376805
Cs 16.39303547084283 17.64224902421905 4.638073486483496
Cs 14.260914055896967 14.745936536346084 18.752109379865306
Cs 14.988290205800583 12.617524369832754 13.741368097155155
Cs 13.72993341278529 1.0081840308912686 16.90020871204096
Cs 17.67194731192927 10.492563091972233 17.91066009645787
Cs 17.59920559541547 18.87120480994994 -0.6753284719825999
Cs 15.792160266715365 2.499681884788915 2.1366407125746933
Cs 1.1021704122785674 18.812267077453587 3.391087634188522
Cs 19.423088712766738 14.352943011422054 0.9977969139385513
Cs 16.90106517009943 5.169793505015101 17.647195837783883
Cs 13.634072757858192 17.668975178804203 13.288419983934805
Cs 0.738520838014085 2.6246330393337973 -0.15197764974289435
Cs 2.760905261571381 18.042730056554312 18.537610199665316
Cs 18.196914501530912 16.065186778758086 15.513191302855203
Cs 18.89700514257913 1.0209736911937608 14.75398429966965
Cs 18.04312561754791 18.02123355353223 10.088264339561311
Cs 2.170032798343777 13.188190045669836 16.693312935752385
Cs 2.3849501172996215 17.527388688072143 13.253588877784763
