16
Energy = -10.40084413 eV
Cs 0.6637070966356671 17.464555693520527 3.7411859474208766
Cs 14.781722246625684 14.84923251059086 4.482712015817185
Cs 14.587853847239705 1.6940945566679426 5.135210758220334
Cs 0.7564300073885092 3.950044725726497 5.294174555826933
Cs 17.027903985053854 13.049433449158794 0.11997870141261481
Cs 13.580295389256843 18.077623185861583 0.4131954612498128
Cs 16.533891353809274 4.225952974198432 0.6394029407845513
Cs 3.172905818638767 2.6566339255243587 0.5437116669278861
Cs 4.094699299725674 15.714049788603187 0.10157398198486635
Cs -0.1501282069420394 17.998979198270952 16.867959280822454
Cs -0.15884420782230238 0.006366126091980057 10.25434737255457
Cs 15.310975566776394 15.03828614717056 13.851585008965039
Cs 1.8219969896280153 13.704862568969542 13.999813407585345
Cs 14.777323974059286 1.7581264713705909 13.973847951226691
Cs 1.2862613418203297 4.108941105587868 14.16346005658245
Cs 4.304591612031696 -0.20917469261224758 13.856693766432413
