16
Energy = -9.90201877 eV
Cs 10.601711 15.498200347101289 10.933237876396493
Cs 10.601711 5.705221652898708 10.933237876396493
Cs 10.601711 10.601711 12.847037365752861
Cs 7.291606815850054 7.81362033716089 14.97976690761885
Cs 7.291606815850054 13.389801662839107 14.97976690761885
Cs 13.91181518414995 7.81362033716089 14.97976690761885
Cs 13.91181518414995 13.389801662839107 14.97976690761885
Cs 7.81362033716089 13.91181518414995 6.223655092381151
Cs 13.389801662839107 7.291606815850054 6.223655092381151
Cs 10.601711 10.601711 8.356384634247139
Cs 7.81362033716089 7.291606815850054 6.223655092381151
Cs 5.705221652898708 10.601711 10.270184123603501
Cs 15.498200347101289 10.601711 10.270184123603501
Cs 13.389801662839107 13.91181518414995 6.223655092381151
Cs 10.601711 10.601711 18.4071749837054
Cs 10.601711 10.601711 2.7962470162946045
