11
Energy = -6.62306078 eV
Cs 14.288314982431395 0.29568964268985715 12.850189900086633
Cs 17.855940681416506 -0.1310961911503897 8.6028753714769
Cs 12.27746047017726 14.621262588720159 15.546786342970384
Cs 15.017127231631584 17.581592052193475 18.264128086364263
Cs 13.153892759178587 12.757922200292564 2.184121888992981
Cs 17.506679008411325 15.255959048273564 12.803575251898485
Cs 0.0055561799941528 1.798583907245228 14.945974951231856
Cs 17.61601690687683 15.148595544159711 3.8508130857110534
Cs 0.33618334722305243 0.724961554492085 1.9376277024095594
Cs 16.69090652574743 12.210718898945247 17.381470924384704
Cs 1.5333357849683282 15.860598965465357 17.11303649865198
