18
Energy = -12.16247083 eV
Cs 3.7596573838509006 17.21987866621444 13.730137982875414
Cs 18.320528053834234 18.040360092646022 10.501700368198783
Cs -0.10054562450679153 2.25716731545666 14.727552675120883
Cs 0.24973997470384396 13.186699932275946 13.595339890068974
Cs 13.866544674785576 -0.15644072937898543 13.588092913078727
Cs 3.4177105862201946 0.5998192998098218 18.364592224594375
Cs 3.1971190561854415 13.953696957434964 17.98853807647412
Cs 15.21339492533821 13.996236547496997 10.090869698377848
Cs 17.37665256323498 16.73013774658967 17.046051668525724
Cs 10.497356329184232 15.091247185363418 11.861678057641393
Cs 17.754890307493017 1.9868633631141208 1.5627188132440137
Cs 16.966127437672284 12.5168686793402 1.0715063635625182
Cs 13.877045250041224 13.054907415688334 15.23775910820927
Cs 13.052833692833698 0.7994985879524298 18.73300711443258
Cs 1.0759550221915588 16.152264214694945 3.3747096928861837
Cs 12.34310169479015 14.674300944777979 1.1525397639543566
Cs 8.74608431297189 16.956128975832783 16.448072434334
Cs 15.127750951499916 17.192624870006465 5.008350088359601
