15
Energy = -9.36633705 eV
Cs 3.9112141058944085 14.732355115215146 18.107559401591207
Cs 0.38234477171206166 10.374732234004117 17.829263995235873
Cs -0.0034016428876153925 14.829521711788217 14.560244637556549
Cs 18.501526863599796 15.277799368195112 0.2557036181300435
Cs 0.9387320823875805 0.14010831984219344 16.749924959854706
Cs 15.286341323475842 11.502081784400445 15.671589048270379
Cs 18.978069373685297 0.5744669723891094 11.815158626406175
Cs 15.006222004876669 11.427544197584966 1.4216714575833267
Cs 13.262384903952709 15.808214367327121 18.329682806295533
Cs 14.151540045806389 2.1936632156541207 11.053175925739044
Cs 15.089458914382297 17.131117486802324 13.701734775483095
Cs 15.354006876856326 16.28138927700267 4.14155254907949
Cs 16.921917548827302 4.337284867956926 15.578972702236834
Cs 16.02654602679542 0.7607803171904326 0.05277746870996211
Cs 12.231375766517996 1.3713725622285569 15.871384277593815
