10
Energy = -5.72485445 eV
Cs 14.133886043057949 7.927529574555413 9.62161339491083
Cs 10.896329820740576 11.122011596822304 11.108121585985147
Cs 10.643233226102698 4.2242449259032115 9.227771479177306
Cs 9.443154996752323 15.77973844379191 10.878697682749701
Cs 10.288963349622847 8.530786620203513 6.535269524008654
Cs 7.013736440913266 7.687387360031136 10.085351731638886
Cs 7.245945559559348 12.401940461308989 8.027835526275183
Cs 6.789690494792185 11.653474360303825 13.2604019577377
Cs 12.430349124365206 13.102281680429856 7.171192382577175
Cs 10.540715266006172 6.9966099766499745 13.509751091113273
