15
Energy = -9.35193476 eV
Cs 16.790020508078502 14.687857369781604 10.822433015221273
Cs 14.65881255870272 19.284581460179886 11.989053983431932
Cs 11.401838222983868 19.635650819422462 16.11144550479248
Cs 19.552990156596678 19.793793439262245 13.71645627491624
Cs 12.581930206758408 13.498635110652002 13.73787143519406
Cs 0.010897447388834578 14.792198423641485 14.537554095427637
Cs 17.69235811877631 10.594389023186201 13.881616067923803
Cs 15.83623969852232 1.6879607856610075 15.833719935554706
Cs 19.42688427324722 12.00988715755017 18.60551985954386
Cs 16.21978258214371 16.0117920603477 16.10885008661347
Cs 14.795194980206153 19.83862442339843 20.018686297467664
Cs 19.79780316369409 18.343459746558132 18.727943778039442
Cs 14.424519969644978 10.754105787397192 18.113131992675555
Cs 11.608733464105965 15.19575443655223 18.61039989227831
Cs 16.3956481090523 15.064963416311421 0.3789712408219096
