14
Energy = -8.7825835 eV
Cs 12.118817725839513 1.747110094691382 0.663982455528578
Cs 8.646495426146174 -0.19660706679865858 16.172007704312055
Cs 16.149977990818787 11.858831939254017 0.5395825002854518
Cs 16.56466414380228 17.357916364286 1.1923820548032762
Cs 2.1560523966404594 14.529373828144658 -0.13935910955431186
Cs 0.5382973020263331 10.630470246118962 15.48266099524606
Cs 4.412605153522539 16.29064998394821 14.401173629571945
Cs 1.627818722947934 0.9360317704254049 17.120867194477434
Cs 0.41844611339038434 0.9895306782053371 12.31745924902176
Cs 12.145081202441851 15.175026285287524 18.140650918403384
Cs 17.29041068355698 15.601527651954123 15.19550978412648
Cs 13.889337356300548 11.3206905308846 14.966893997039437
Cs 15.11831371399558 1.7461773648160968 15.574491304811414
Cs 12.777651647115501 16.55676140688836 13.084054091669788
