12
Energy = -7.28041238 eV
Cs 10.294513420062524 9.993691684039891 8.77587903697539
Cs 11.326742356682981 6.8679011576349955 13.08667296988429
Cs 14.75544131135705 10.255171789447203 11.343089486157501
Cs 14.140646527880033 5.578397489672942 9.053983497700104
Cs 9.200054470692466 3.4252527394633128 9.291002348732874
Cs 9.85446326350391 12.510619790286043 13.024869301576429
Cs 5.266260441643378 12.947003031203382 9.725243030244494
Cs 9.320798860163162 16.399311135876122 9.28385335533311
Cs 6.473694822642864 8.183421004956049 12.25897809297353
Cs 9.873160994809258 6.746083332113298 5.020057901910352
Cs 7.556667815028213 12.429235636852056 5.273859629525548
Cs 5.390309749795063 8.116663886541522 7.315264027073469
