13
Energy = -7.83052252 eV
Cs 12.64778202539785 18.75366391771775 15.618865777529026
Cs 16.299586562783634 0.6798134401759722 18.89260556921064
Cs 15.236469386958966 18.733952553736817 11.141272399540625
Cs 9.681335308163883 13.191500906549589 16.71134411189823
Cs 12.822449051487851 16.106242754560515 0.3337974391643001
Cs 18.89495135918211 0.1436563456106113 14.412607832558978
Cs 13.568940844611936 14.264462498905635 13.303086996310842
Cs 17.141686173179608 15.341056233216246 16.837832117092734
Cs 18.747644112894605 14.956643943295761 11.439461701853704
Cs 13.99792863907199 11.059970597541307 18.058997373514867
Cs 12.205894606443344 9.106809351215379 13.514314760599705
Cs 15.420504175136902 10.973278056512054 9.558566254538405
Cs 17.442308862537537 10.628967129325227 14.209418489123806
