19
Energy = -12.53264623 eV
Cs 19.71232343373908 14.559966058254098 0.5503548921272291
Cs 3.73743009250827 18.035598703200836 2.345730287070914
Cs 4.690163833338842 14.584081290511648 18.31864183717507
Cs 14.298218765317364 13.471833774245386 0.2789020809961205
Cs 13.976664343711617 18.422417064535296 1.9580582326530553
Cs 1.3806945146120302 14.80954253619107 14.426507262388371
Cs 9.549533769323768 16.19751454496117 0.018103048653340392
Cs 18.72878063497461 -0.4292190484994989 2.6344497505507434
Cs 17.7074055652786 11.65883485005814 16.362877317706307
Cs 1.6686420742624823 19.21912002245659 17.681404554340574
Cs 16.896525645888207 17.1878985922946 17.195196049186208
Cs 12.634759654005174 14.848350741367334 15.40608167764118
Cs 1.3780405938067457 3.594780813820175 0.704557678737757
Cs 12.053892205916547 0.12150398482462045 17.463216797220472
Cs 16.904999209972832 14.973516089352072 11.948735244661329
Cs 16.725032332600716 2.351948170098501 18.03440637065834
Cs 19.558005799883848 19.67301160224442 12.868203031225065
Cs 0.7966027296506806 4.166489309179559 15.39677824757705
Cs 14.438147409409162 19.56115340794378 13.043955245172501
