10
Energy = -5.45514354 eV
Cs 16.387062956729313 2.0333247687169225 10.410642235312217
Cs 12.354379208711261 1.911441640397051 13.665679912427803
Cs 16.250670371089566 17.892971239868395 14.203804435363056
Cs 0.5485901055062208 14.232716141189796 14.624130455014088
Cs 0.6515510583569172 17.989185593994268 10.706065078010463
Cs 16.24481109325765 14.471976723515485 18.306695288396632
Cs 0.6810116174677 11.089981129451955 18.966023741314693
Cs 12.483791074683824 18.223464234905922 17.920357467161253
Cs 13.026401515729429 15.300301458312331 2.863517646803728
Cs 16.92223456257315 11.907493007313946 3.385939677861717
