12
Energy = -7.52890003 eV
Cs 0.6869252369308761 15.025679013128459 12.423313713318727
Cs 0.9530485986576743 13.34078359812092 17.191998361462808
Cs 13.35549148971542 0.946833641432515 15.923780280872522
Cs 18.82859834970413 18.806688490461685 17.017779621610575
Cs 17.178665415799767 0.9598818307182461 12.49592740288336
Cs 16.774956041168693 5.26185008619366 16.288060545578663
Cs 15.516170933249843 10.977923490175717 18.389466006442188
Cs 12.754717149296848 16.073457176973264 -0.16025456765488028
Cs 17.988305849134587 10.149161099606138 13.727212379354004
Cs 17.457257805788338 15.628411336100376 1.5938721510337597
Cs 15.390550866114584 15.140849156404778 14.817738283950396
Cs 15.351365591138169 1.559276482002225 1.313560279584415
