10
Energy = -6.18256172 eV
Cs 13.025004281815717 13.727158316379032 18.528510302211988
Cs 18.10288107235293 14.832717034013077 19.074821258524906
Cs 19.343606099858395 0.13443219424469335 18.670161671758994
Cs 14.37693195739437 18.65234095888786 18.11693416886528
Cs 4.230859978354022 17.563952497908755 17.998909704919726
Cs 8.787051669838744 16.1161608218615 16.47030247722635
Cs 16.196441696582873 13.700109168976152 14.3963014564822
Cs 17.68366529823119 18.651024922911727 13.975113283305326
Cs 12.666616711399953 17.485503468314104 13.378141957253591
Cs 1.5159792319042764 14.813155840587848 14.814876169887253
