16
Energy = -10.27472211 eV
Cs 3.929455164545726 16.822348679900266 14.753845247157665
Cs 3.990745118782881 0.2830695162174857 19.00834472927016
Cs -0.03138044363809113 17.54220416044811 10.143441969741458
Cs 15.026964452828468 17.89863228868953 12.540916944375534
Cs 19.167538871065343 -0.3060255328165482 15.700570597234655
Cs 0.9717341507227469 15.593250245321858 19.156073183494865
Cs 19.02597574738511 14.108719025805351 13.925319485914118
Cs 19.004777772156608 0.5314517572736227 1.186930621442885
Cs 15.429407546027782 16.506585939009856 18.059908203565545
Cs 10.398960516809208 17.22336279715635 14.750671080408496
Cs 14.160881940188009 1.2518722913893359 17.225021558092028
Cs 13.919502638708265 12.954699761559374 14.048085692720473
Cs 17.7265063176398 15.62055616940912 3.5802851335364587
Cs 17.22311619213208 11.8584824975237 18.310322059484506
Cs 9.724435633653526 18.880742155903313 19.564944349774223
Cs 14.049377398028536 19.443266099156617 2.7232544137507144
