17
Energy = -10.97373678 eV
Cs 15.604287970339657 17.117319845357756 10.973427649155688
Cs 0.11093843214854661 15.753784792994555 13.212776874257441
Cs 13.665644671585433 1.397178928972217 13.338173347384492
Cs 18.860940954171095 1.0160420344935246 13.095487337854538
Cs 15.909429105231549 12.942690431093157 14.84056088238164
Cs 11.993201304276278 16.578018916003813 14.542379194575771
Cs 1.4120210902886174 14.551632421407884 17.894456571257606
Cs 16.99119664850451 17.75897195867109 16.807501388008244
Cs 1.1380721815089276 0.5848447246164655 17.857421499333622
Cs 16.88244870001636 4.185803435596332 17.39478305535058
Cs 13.32379851502228 15.179043459174903 19.51498951366091
Cs 19.454662020162967 9.7839261981692 17.22161283210439
Cs 12.891006083668223 0.5121951652582968 18.387646115484518
Cs 14.781374900234507 9.975103792620986 19.234636177618302
Cs 1.3868162406420084 17.674644920592606 2.1315251168255642
Cs 17.76214234614001 13.861456205857914 1.3540699033655887
Cs 17.093716036233623 0.3117144404228596 1.4989125059924728
