17
Energy = -10.69419665 eV
Cs 19.306115080727775 9.927543136687717 17.319571801501493
Cs -8.734435970365091E-4 18.929809781052384 13.804859092749329
Cs 17.59545101222712 14.757306653550645 14.46586007264515
Cs 0.8741084711480018 14.752509532547974 17.71376931090862
Cs 15.914568388750999 9.810199651882616 12.975062497129072
Cs 16.04189388968875 20.515455070924737 13.774507886659514
Cs 2.182283356011684 20.453839503156182 18.69084408833157
Cs 19.1260545717853 3.0517621320316652 15.783989688507292
Cs 13.764200214528577 12.190374424590926 16.942473386385544
Cs 1.4245364032052146 4.886242819477733 19.168520762992202
Cs 18.245768481168927 18.771221722920696 18.10978284446055
Cs 14.510159226090696 1.5095860005790496 18.62724085565884
Cs 20.612717226505488 17.461006802960696 1.6957061874592465
Cs 13.243893796493873 17.2892639631039 17.734445979136442
Cs 17.213417519661768 14.014953449682242 20.569130443059926
Cs 19.05688666943571 1.7242089614052134 0.6384306162447317
Cs 15.628077070688372 18.774046775966028 1.5914884345902567
