18
Energy = -11.7988207 eV
Cs 1.1621846433304492 12.399054561961263 16.895130584755353
Cs 0.7647089644835022 14.848947220708459 12.463745704147053
Cs 16.32186470971879 13.116156412672163 14.685736892483888
Cs 1.2257927726653581 15.715954538129951 0.8905485481650366
Cs 17.484266224203974 18.472359753005858 11.306613687979914
Cs 4.875039940828153 17.350343558194016 17.671113130036932
Cs 17.19143574923735 12.45286616043234 -0.15032972907391678
Cs 1.9836530468263613 19.784673783015762 14.062279277510907
Cs 17.98195363045786 17.335988176568964 16.71774216188054
Cs 0.3890079547459307 0.7791643081214484 19.00897140048804
Cs 12.972502671907943 16.185307215801124 17.371952074515757
Cs 17.96796335335932 2.775065387808942 14.588475056203254
Cs 16.762011253399535 17.743754841338454 1.9769592011466732
Cs 13.45065305832841 0.01069574580543557 13.692448032672289
Cs 12.936748602979572 13.961477118239475 2.0272781772703996
Cs 11.807363098414806 19.11653575624188 1.866460752575997
Cs 14.936555021972483 1.5168666883592028 18.6386519182095
Cs 9.544327433726853 0.09037677274319432 17.228183382107325
