14
Energy = -8.72690557 eV
Cs 6.730596400258736 7.799149607420341 6.416939119735495
Cs 5.704325148584722 9.633315030261922 11.327736341447391
Cs 9.500650812850536 8.191583055174876 15.74116315828239
Cs 11.86695812501532 7.89615675598718 6.375695351782355
Cs 10.550675730392326 10.445443335794758 10.922681387330673
Cs 14.1722909577171 7.287777582379947 13.659462711864037
Cs 9.251574594768396 10.918164632873426 2.7425600788157465
Cs 7.0167703221581625 12.875088554510667 7.415727929830047
Cs 8.460489228579359 13.164198082394682 15.345977318851915
Cs 12.13284077430346 13.177572829346946 6.621222236791437
Cs 11.830633755021893 15.23299468865225 11.870123205530314
Cs 13.531488314102317 12.08609963959023 15.861870109334836
Cs 15.51950432474349 11.463226222621394 10.954325715897406
Cs 9.505107329371523 5.6031379829908 10.518422243439694
