21
Energy = -14.32488842 eV
Cs 18.47380418539567 1.931717373374742 4.320050857678596
Cs 19.226716696439368 2.8019560709601548 19.299975095875713
Cs 19.883911308039345 3.0802371041190404 14.035895309656874
Cs 14.274803898347722 0.39826781604915434 0.9112975874426559
Cs 2.8269113151135548 0.1615308047303168 1.8144737229799555
Cs 15.042890128266396 18.608619055364993 6.136207171928829
Cs 17.263945728864744 1.283561066188256 9.740800878839526
Cs 0.9444549780855845 18.392721012678127 6.281093287060804
Cs 18.49470035509361 18.262356252119247 0.5278077832456505
Cs 2.4161690055465237 19.75134481899357 16.972026947741412
Cs 18.485895286084045 14.420757616644247 4.208321128740912
Cs 13.759611683572995 15.566731685160326 2.0355518214438164
Cs 13.782236143955716 18.122082321133323 11.72509091506418
Cs 2.2838199587152346 15.560986507818232 -0.005869740160792434
Cs 17.471547005903574 19.128247553359284 15.556049648835664
Cs 1.2515949597537899 19.09934230526687 11.60309524629305
Cs 13.148183217683103 16.88417034850458 17.477827493191047
Cs 17.70976698125349 13.521403797375733 19.119717359583333
Cs 18.06781813672157 15.584542128331346 9.608417545418149
Cs 0.543176642830589 15.04668637092395 15.050718187873677
Cs 15.932775933086244 13.807579147075685 14.146899491666506
