25
Energy = -17.66712997 eV
Cs 0.4721353478439106 18.642880766240665 5.620146133707264
Cs 2.5726612424589472 16.7688610330745 0.7639889233431215
Cs 0.01805182990254114 1.9244781463080392 0.30280242832755516
Cs 18.93679770060123 4.815413290153944 15.3845855185814
Cs 14.709087414599916 3.092826971789626 18.85783934395458
Cs 3.702953967617326 14.561354314556755 15.773744011207452
Cs 15.63435300282854 1.2319697396299878 4.53998603948547
Cs 18.826289457301492 13.610250669692231 4.797301532511373
Cs 14.130149368144114 15.92962470669752 5.348206655270406
Cs 0.009430607676048874 11.958096042059061 19.2243348155402
Cs 2.063843171652718 19.66011127676102 15.418795850970412
Cs 18.25555911578631 15.097231169771614 15.486146048544878
Cs 14.552318227740978 13.03362304941711 0.3940249160460563
Cs 1.6172217896062608 16.072026655139684 10.701380034588624
Cs 16.47852133712196 19.516932970487925 15.369499088558428
Cs 18.682765016735715 0.8335491843931554 10.432092957888242
Cs 0.421992008532787 11.011205311705412 12.900189134516111
Cs 14.678539927886963 3.829007308334868 12.565301330088676
Cs 17.30666534000888 17.28948313085352 0.6779779702421117
Cs 12.341655229227786 18.088659460007037 0.27970496061454103
Cs 15.779978943267096 10.147779340056152 15.528472042077997
Cs 16.417609851500696 14.148492476343902 10.185425139739602
Cs 11.266331795539154 0.39091842173012614 15.236964240527103
Cs 13.71027149220725 18.66664018932199 10.216605905762254
Cs 12.971670228450744 15.004294407400414 15.152666153586651
