22
Energy = -15.1176354 eV
Cs 0.8290117939650616 15.078282419536828 15.287014186000974
Cs 1.9236512035486886 -0.5602761876534741 3.594593807474288
Cs 6.590833373544539 2.4816281908573457 4.155747758812922
Cs 17.273803034616808 16.72551172095554 2.3622877896575885
Cs 3.990758636140558 2.634952417548237 19.3288468899399
Cs 19.186351299945734 6.193602932749402 18.2418161045358
Cs 16.275964117730354 2.1918778090027247 1.3974000170537673
Cs 18.361058272592167 18.930274848425253 12.15166882441591
Cs 11.880691357415317 19.75752379072493 3.4418743409270207
Cs 5.208453964522273 18.23098573329844 16.399981016842613
Cs 13.073946409048574 19.297857262206428 12.738321709576727
Cs 18.195802110746715 11.896555698143734 -0.7028085023375267
Cs 2.4998011974285848 15.161835267789467 0.4082110811376902
Cs 15.865150238751111 16.603620941983692 16.69383484852908
Cs 15.887551464307872 2.3464903815980187 15.993917063979822
Cs 11.033919388555336 19.07478830768781 17.774048212388113
Cs 7.044976973904407 17.933633001806598 1.6468586185471847
Cs 1.386376040373436 2.7359182460496765 14.52366333778807
Cs 16.982779496759946 0.5493670481149621 6.625631995928756
Cs -0.07614687237270991 19.481035746900556 18.348176089596212
Cs 0.9300708309909819 4.528334135626221 3.308111542424146
Cs 12.925118968308263 14.792804573447379 0.6959436866739644
