21
Energy = -14.09693661 eV
Cs 17.071536706999836 18.33269288156816 12.08004532924731
Cs 16.537733072805832 13.498283220066135 14.101124013827054
Cs 0.9187246506613344 15.162348803116835 12.103864112427113
Cs 12.990998454847379 0.7701366611240269 13.873266190694764
Cs 1.915727424181266 19.995741140375102 13.656510290351648
Cs 1.0087365254816503 11.980865226167737 16.16899087586928
Cs 18.072453546380853 2.0500037188700158 15.37791398571141
Cs 11.953569265808202 16.266416484471087 13.113734810694561
Cs 4.849036598239604 16.269631136346423 16.40707657614922
Cs 12.091965977455365 12.983469457834333 17.05055749728444
Cs 19.829922952474128 17.05624761096306 17.093977521539507
Cs 14.010413338459427 2.929668245386629 18.464520734819768
Cs 15.156495860425446 17.810835507775273 17.56037960107652
Cs 10.153074462820769 18.44140060461072 18.205404181943507
Cs 17.051766142365878 12.725123542307573 19.362034043835774
Cs 18.58833879416379 1.260934244613139 0.13933345121689114
Cs 12.875818750635498 15.014429523191863 1.4004219751011069
Cs 2.79592259632808 18.978728146515536 0.413733120179491
Cs 1.7911795709754441 13.891344294630892 0.6166068609455955
Cs 13.765835648052613 19.979257948490897 2.02847890712351
Cs 18.073158237863982 16.8342569773958 2.2844344973879283
