23
Energy = -15.6833088 eV
Cs 16.884789839820087 0.24247290293084822 5.140245746317864
Cs 19.128197241855982 15.271963643031203 3.128462649635104
Cs 1.6219003851407088 0.10334779837449538 1.3647782621775284
Cs 13.516039283316216 16.411996217941173 3.0339201395297866
Cs 17.636950372555727 4.112802423811861 0.6220096305275572
Cs 12.518040838741872 1.72148308091571 1.3810333962258623
Cs 16.63530167064087 19.047208736893765 0.029099625659286157
Cs 15.400868358848054 13.418946329228996 19.14343882651149
Cs 19.900846794969574 1.7574547160421616 16.24874977809619
Cs 4.260725929853722 15.296719218025194 1.1201915627702708
Cs 0.4894180194627355 11.300364045112088 19.391174582877913
Cs 4.896354735965575 18.781550356019903 16.64231039640517
Cs 14.03271254212323 2.520783174219711 16.43325103976106
Cs 0.13915922765041605 16.2989738487152 17.915625700684604
Cs 10.943718599349198 17.571958479988787 18.261154013933695
Cs 3.8744824832367413 13.644613835385632 15.755648971256015
Cs 15.903274695550563 17.767976295100052 15.380776795492054
Cs 16.647355072567844 1.2490748911764358 11.62107185990966
Cs 18.163979216698543 12.927206096762493 14.241550921480778
Cs 12.661361603236047 14.040150722692427 14.26481308899759
Cs 0.7817867409731805 17.54173047263152 12.873711981292926
Cs 11.46522677258005 19.206651677499394 12.892761372257592
Cs 16.278765140952665 16.074711177812333 10.185222134085148
