29
Energy = -20.08670525 eV
Cs 2.4362270368108883 19.801566522678655 13.25038222693879
Cs 20.245800627058916 19.709143010165437 9.996511076698013
Cs 19.12371550156751 2.1564363071308787 13.48950064867986
Cs 4.845218038841865 20.39857182549866 20.288101463873726
Cs 21.031194409922914 14.970140953084265 13.323904534306752
Cs 0.9280344162453145 0.9299260582749413 17.529212593424926
Cs 1.6809686238666524 3.184374069027319 1.00714339403507
Cs 1.5853946894683393 17.251278549374888 17.657613378513396
Cs 4.185086322218489 20.754266644299886 3.652049980294995
Cs 18.194383750340993 18.880157341942276 15.07375011101123
Cs 2.5474198895694666 15.910088908748454 1.0789664637979537
Cs 16.72507514253351 15.914019648545551 10.243448880954256
Cs 15.355094748853691 21.17671464384996 10.652070581617352
Cs 20.338346138447474 13.338593317940548 19.13760076720656
Cs 12.68289281595028 17.541517295851587 13.602562325649792
Cs 0.6640065032473329 17.38294489517153 5.83077696502586
Cs 0.007806636401788712 1.3568502750859275 5.929460747165646
Cs 17.52749739705849 17.799166954147818 19.82419572811172
Cs 16.048440328610603 13.90319986129655 15.631044710973745
Cs 17.980258228648925 2.517696097255042 18.897385287136483
Cs 20.887494356802527 20.101244098377716 0.9685251915271879
Cs 18.882708590275357 14.82406980816871 2.818528922536651
Cs 18.065049074281593 3.084761090180355 2.4457561422054295
Cs 14.02494454492146 0.36974227569957985 16.156632697935898
Cs 15.373364499070266 12.824459955906075 20.75148600260146
Cs 17.24629493541328 19.832449079013344 5.148993976108755
Cs 12.543465768503228 17.12404976187957 18.72164078657685
Cs 14.021337440498922 16.721078773064256 2.549990251265951
Cs 14.29724709458177 -0.011177112031553412 0.2684108014808522
