25
Energy = -16.6423473 eV
Cs 13.020072734222731 16.467922692082233 12.756466248398768
Cs 12.059345508240293 17.169544312516013 19.093163715149466
Cs 12.845244172265653 11.483726649667473 11.077597390986387
Cs 13.85930072510386 20.88038319776072 15.51306146310737
Cs 13.274436336003133 12.433490231686097 16.206684578222415
Cs 14.10458656773939 3.3188549177003126 16.87119726520279
Cs 18.1268660868691 19.06435874973115 12.589348689225496
Cs 14.261844284723136 21.998383034683705 20.4938652583023
Cs 16.696767623723385 16.336525845826408 17.031132729267807
Cs 15.886365793969668 8.03936370390251 14.270159881504918
Cs 17.5584608569688 13.399986532925 12.732230642939225
Cs 15.075995255831446 13.142273851063695 21.051824468392116
Cs 1.0724620995119225 18.09475414140239 19.367005736928153
Cs 21.837598173210846 18.949009997099463 0.8270496816932061
Cs 0.80971591907117 12.603582141692968 18.546083060466074
Cs -0.4405007929363446 22.97040895397733 20.887788458445325
Cs 20.183443735219466 15.062737629846472 21.00897293364199
Cs 18.383215289977766 2.3581526999180644 19.896777734377622
Cs 22.42850377614239 21.15635961777214 15.36846786538237
Cs 18.26596376026565 22.67146833169509 0.8381253009576812
Cs 18.936710005956648 20.067617398456555 19.0870750547726
Cs 18.929960059314176 11.32688758628 17.43344420927717
Cs 21.635218352277114 15.900108293984223 15.305017206667953
Cs 16.29570284643116 17.757638992837858 -0.013503790794226424
Cs 18.120225664141334 0.5739653297360143 14.988469051728565
