21
Energy = -14.09793964 eV
Cs 13.465049872901552 3.7561229565326997 13.700900919803857
Cs 11.360859244961741 18.76492140222516 14.355615966516606
Cs 12.823140651428004 1.634571214475736 18.463991262139157
Cs 17.287003745790848 5.559150245124357 17.225415148704446
Cs 16.930609303028703 0.15139898725876952 14.67908030908938
Cs 15.215272695307121 14.816655444281416 13.567610138182793
Cs 13.915334346503107 16.298667051058224 18.298852217328264
Cs 19.44203183324269 16.066411646904523 10.805843096602388
Cs 13.364342823641286 18.45880093967365 2.890635879271864
Cs 17.30985746759963 0.8888773997739378 0.6432182100344795
Cs 19.199775926073674 17.06093974002887 17.56399877600033
Cs 1.5021173922630051 2.2391694996034643 17.803131220704127
Cs 17.68985637658492 11.538535229346724 16.9749286770338
Cs 1.6389969522401153 18.678653624899276 2.023612657879701
Cs 17.083838316330873 14.678827217735678 2.0233420055258264
Cs 2.3469974115503645 19.447608088011723 13.558737332606077
Cs 17.690204429527874 18.55400098791304 5.998998387630696
Cs 2.2261055705783908 14.063369723064172 14.918913998519336
Cs 5.145796939088612 18.169564271956624 17.726166347773354
Cs 1.895201521640949 13.667789510983518 0.2340518391613876
Cs 1.0106178987809826 14.552188871775888 5.63665528168572
