22
Energy = -14.99053519 eV
Cs 14.269160894532567 9.315898295132827 16.898291278234794
Cs 12.973316231006532 13.991558284464755 -0.38570658319633716
Cs 10.229097866031065 15.768606419320754 15.771281459206845
Cs 17.910084471025392 12.711730357101588 19.300073532092412
Cs 15.514241874090338 14.619460151497918 15.004920326589392
Cs 2.6458606602454617 10.834515137202134 18.772434966061148
Cs 16.54436831220434 17.147306330406433 2.4122526661657973
Cs 12.819121941455876 19.274326665520707 19.50080524053124
Cs 13.752250717784674 19.502495493380206 14.206445425236286
Cs 1.1140441779253487 14.659031395096918 15.51559986458874
Cs 1.2822189353175866 15.775004324506648 1.115190370083733
Cs 17.93838319884519 18.806457942904675 17.653319222389904
Cs 5.6661429300808175 15.948180737607169 18.62412675892103
Cs 19.044383984947967 0.1311763846079063 6.3245226337076
Cs 18.91551301009162 18.39634914274762 12.11397109477575
Cs 16.769461048832515 2.3964544016856943 1.645391907124676
Cs 13.87872991262205 4.03920235044561 17.536183166549133
Cs 2.7118157143271393 19.63983256751032 16.175956514904247
Cs 1.3795476943147542 2.768043825445741 12.247633941553842
Cs 1.4884462054616798 0.6477052982812779 1.157397465803704
Cs 19.804435948184235 4.05026481787639 17.431996382348277
Cs 16.626822309649004 3.4008952727498496 13.127064369144328
