24
Energy = -16.58594444 eV
Cs 0.11315299450133827 -0.40128932427198954 10.004806085981585
Cs 6.61388568187439 19.289475471643836 14.355593941870692
Cs 19.80430914026648 4.322114323497708 1.7679876518595534
Cs 1.778237881804539 1.6588928371995637 16.123169768270845
Cs 3.0538800037090574 0.3911391396988745 1.8961588983424364
Cs 12.428263639312744 1.381579855274994 16.80233469916423
Cs 17.006600280182976 0.1581448472613984 13.983136396481896
Cs 18.904216879323208 19.941760811720666 4.704863093484655
Cs 4.183475568383338 17.016329606720536 18.660106701397083
Cs 16.882161099549474 4.317594332927709 17.640357945438883
Cs 1.142821320126761 17.110557696090616 14.234432793179494
Cs 19.18719036291807 19.323528900919825 19.289772514189124
Cs 1.0149618957995687 15.617366704547779 2.41160343859848
Cs 14.978951742059602 17.007886679513348 17.39486012337364
Cs -1.040130136921473 13.838706407587777 17.92379090259649
Cs 16.662112567763106 14.765317577338378 13.048864509012459
Cs 11.795013098048903 17.929950177450053 13.07183846660053
Cs 14.9638654299553 0.8973504123867294 1.2506551581521885
Cs 10.021545526520152 17.159618653709924 18.800729383830976
Cs 16.146584352328368 15.965515559007821 2.1600753439487046
Cs 15.730686355799593 9.532661565138111 16.108395062320728
Cs 11.946842065447887 12.966796319541528 14.735072254748273
Cs 18.146827646900256 9.892185517718929 0.9848544170445053
Cs 13.237084870787939 12.576100083728779 19.798725308741354
