24
Energy = -16.29656343 eV
Cs 4.706827435481032 17.939505013810855 19.046632697326803
Cs 7.273450444074833 1.8686273210481625 15.917862701651593
Cs 4.292051716829531 2.460036483881966 0.9834101450983953
Cs 0.19107337655652987 14.849487132922789 16.544850493802638
Cs 1.7977507669136807 14.254269324285723 1.276256592067982
Cs 1.5834533652192575 3.0519213505080325 6.736253201726069
Cs 2.7464014132008328 18.650719294526183 3.9174432635257923
Cs 19.82229611778323 19.3728506471634 20.061450791093407
Cs 18.978895363392105 1.8082285839990548 12.09676206153058
Cs 2.2637925868697124 18.963323997799375 14.304859961054087
Cs 1.9408891490481313 3.1425368495276533 16.70682231355688
Cs 19.974422743507283 9.43329001398681 19.43156316706428
Cs 19.962238646615422 4.406379823562992 1.4299828091258997
Cs 17.948977556462793 0.4988316844616259 5.108342060402745
Cs 18.852123176154066 15.671041641992181 5.472609556301046
Cs 12.682078816762946 1.822942767258958 13.855366660222007
Cs 19.04281255622571 16.53166775993793 10.972318364880229
Cs 17.06732340814185 14.11378102680689 -0.09115272628787255
Cs 14.885153935067644 18.17426795032658 1.894110628781673
Cs 17.045999473354847 3.173710435885198 17.047524074949223
Cs 16.42773110266537 18.209450194585568 16.031911468298183
Cs 15.049556164396284 3.1045669435470415 1.4457879036410124
Cs 11.90914611007093 15.495858533592507 18.87965373325378
Cs 11.634248622014745 0.348079691504495 18.641412333798502
