21
Energy = -13.95471705 eV
Cs 1.1504077297860167 18.69105547587225 12.255351120632426
Cs 17.882105378663475 19.838983828188358 15.34682489432379
Cs 19.331813078267494 14.427049947191657 14.5616495073744
Cs 1.1441127028516411 2.8370333703041517 15.22832169998542
Cs 12.748774186678768 0.2350471206299766 14.831882962793424
Cs 17.021055507088093 11.999800334087924 19.206609179813896
Cs 20.225488125396705 7.704309477188486 17.78561216300555
Cs 14.300972069004374 15.724812232276586 15.84746425847781
Cs 4.444992708098381 15.192468884168601 14.236102676173621
Cs 9.327822496269912 17.28014537636385 17.295681101114003
Cs 16.102324342902484 4.143838392695029 16.759881787476818
Cs 2.0637051077351667 12.87862007692778 18.282218923475558
Cs 14.553816327119343 -0.12041357841745734 19.696950075655025
Cs 18.64895364465349 16.872657097584547 19.58234465577948
Cs 13.401287059755871 15.722066389728393 0.5095959453161512
Cs 19.84769691917618 1.8158255607680476 20.103231446468502
Cs 17.253755925159005 20.079997795762047 3.5114784955678107
Cs 2.575481278323219 18.563974568935603 17.686186833985662
Cs 0.9165088022933869 13.387876118519793 2.4408081144943536
Cs 17.138752886424314 14.954366745538016 3.9805592458620587
Cs 1.5208983841210992 18.655298152589708 2.5954192349525362
