26
Energy = -17.80434732 eV
Cs 3.9238705427787064 16.746558313385144 17.660812517923457
Cs 3.6685760664019322 18.275126372938548 2.26921077447931
Cs 5.183368449947829 1.913450715339295 18.983192937363402
Cs 19.421596991359603 18.029509080376375 4.700593135579265
Cs 1.0081592225524991 2.552547228546257 2.2779483533214564
Cs 4.817275800627365 5.184527762807784 14.854367504780724
Cs 20.110600048547163 13.459596061521564 16.255858291919704
Cs 0.8915296045769827 13.820908795986293 1.1487430214377756
Cs 17.27511213724186 12.93350711934669 4.559514547634342
Cs 4.151885990040777 0.1913646839739564 13.812387787194293
Cs 1.517261148207575 6.219576955714489 18.655944790413102
Cs 0.2649682727175208 0.2626401709671279 17.918985997558234
Cs 17.388252985225034 7.874829979769835 2.037614970340207
Cs 17.536186516200647 17.25921196345914 19.92339235822425
Cs 3.3045924467539884 15.115248491312343 12.700121216299939
Cs 15.865132804941503 12.187879254929681 19.48539999966073
Cs 16.265768755270088 1.504076996358323 2.4143340220897658
Cs 20.183057748112223 3.679145882300211 13.97831491905561
Cs 13.845588509876768 16.864976991136412 3.28983430830823
Cs 16.889085952524486 4.198777777483664 18.402225608320546
Cs 12.458017202734856 11.796399211884992 3.0478941498140246
Cs 15.08040728378281 15.860643690752596 15.601342835677968
Cs 19.547595277004472 18.11979202767004 13.334735413212535
Cs 11.153341848399208 14.975532521706493 19.302680357243204
Cs 12.797310129545147 -0.1541947266357058 19.034779216978205
Cs 15.638904113913602 0.6893586392816077 14.850443757940145
