20
Energy = -13.67852293 eV
Cs 3.0745753453085203 16.993269714408974 15.14593988517588
Cs 4.90128965309679 3.4809884274002316 5.977269883939863
Cs 1.3241426009161756 3.8644986874417304 2.5281859794961665
Cs 2.7513139180057933 8.774462901203327 4.284674790685522
Cs 16.470710470379704 6.621618403001211 4.802718323044948
Cs 15.683887624703193 4.3671367644909695 17.80419394090508
Cs 16.7429296387286 1.1844470150601722 13.793273734405528
Cs 1.5986619238343422 17.38375577189896 5.701053523395606
Cs 12.867232806397709 18.31514486493204 18.038413332858994
Cs 16.33350275800667 14.725060865716152 3.0580471484425353
Cs 16.61026597759085 14.743921447853785 16.1871893383339
Cs 2.9267458571308094 13.600667093506008 1.8254402932437734
Cs 5.854091067344403 5.589853237753081 0.9133461012876879
Cs 5.058310263056239 0.11858225480162748 1.844440124483993
Cs 2.3961949325979526 3.9367663047545753 15.531554331569632
Cs 7.432514461514798 1.9801785531530756 15.936333720992153
Cs 15.535447710461103 1.4346936707133189 4.3836341180987475
Cs 0.36262180406856814 3.164616397606317 8.690190696250983
Cs 7.7292794576031785 15.52089197650728 17.53326433844341
Cs 0.005405441148349955 -0.14143064031002692 0.259584856314507
