23
Energy = -15.60248089 eV
Cs 10.422118358560441 18.595352534498883 17.86398560265911
Cs 18.574045078556974 0.7020466689315007 12.435053302904112
Cs 14.563002733320431 16.835205705526786 14.084901388686466
Cs 11.573734240431692 13.333511154707928 17.618572001032117
Cs 15.833535990181211 1.6429450372659962 16.826836721839513
Cs 1.1356448467076357 11.952782132275313 13.694688372918314
Cs 11.583122766537393 16.194731713528828 2.385243644617862
Cs 18.45833046046666 15.692482667386646 10.6864243788711
Cs 19.224346392284215 6.656800758216315 14.959449677033058
Cs 15.503560784880005 16.593148603419763 19.32935446740927
Cs 17.32861949986212 5.41309577659046 0.27163251017514056
Cs 2.607994936380007 3.5290568250940972 1.1210194218137046
Cs 13.820004522553683 1.1078676525769255 1.61188969862405
Cs 3.127369451044516 17.334045657156558 13.191023589642013
Cs 19.608412781384473 16.861424157868246 16.44727759270271
Cs 17.08625463267596 11.950783630207974 16.57951946624606
Cs 15.34002681598477 11.664497730106396 1.5073815545650584
Cs 16.71859912735253 16.438473069608186 4.658438846548044
Cs 1.2937510206550664 1.8987167496331412 16.518304536864548
Cs 19.093110632658377 19.994838106223035 1.1220730260982177
Cs 0.2669024462324332 14.320928892430716 0.9849770921516683
Cs 4.6793303234425885 14.088352490883732 17.319863495248583
Cs 4.372913415686703 18.633636228785605 19.73614888262319
