24
Energy = -16.29989367 eV
Cs 18.037090781351047 0.27190516386945934 12.556224314553933
Cs 18.827780007584902 14.360536839020678 9.027864134979863
Cs 17.664044567688826 3.291504797586281 17.06521569260661
Cs 1.1533114392630757 0.0067416498466010295 16.332902994642247
Cs 14.155125603090065 20.274152384365436 16.346138814938367
Cs 13.495110499170153 2.629100893215526 20.47743310501981
Cs 1.0412312367480645 3.650128750771574 20.249635212667826
Cs 15.311657986611106 16.789848296798887 12.423865871271591
Cs 0.17776941628919057 16.608229659175908 13.255809808876355
Cs 17.50169461552789 5.238621983558815 1.5477018794080224
Cs 17.5375598604776 12.444749948400135 13.993485983802795
Cs 18.43749887853028 17.098422918188287 17.472950422007056
Cs 13.86039300865972 14.794168177268766 17.388417418642295
Cs 18.185036825446677 20.532226678119258 -0.039400648883112566
Cs 3.269783514586428 20.006778080082704 0.25445802707579207
Cs 2.868571448134478 15.826125914920055 17.897976001125368
Cs 1.6004715079569678 11.500227636548303 14.03046016454501
Cs 15.312615392296419 1.4677384029277172 4.437706181165259
Cs 13.475106505705684 18.3059278867951 0.6505867036502418
Cs 20.05204192958921 12.011524947983288 18.70082162645119
Cs 16.457613357075346 13.972206761032913 1.0489296564020847
Cs 20.55648298623459 0.8021014688881546 4.1816713929716425
Cs 0.24672704306769622 16.085419524004408 1.676159835688844
Cs 17.133498993334907 17.51469098922509 4.956445123703862
