29
Energy = -20.23370779 eV
Cs 19.949292913276704 13.64363800469161 2.01837375911494
Cs 0.6754368513271257 16.836881354756624 5.893010411727502
Cs 16.63152753786571 16.548194307346286 5.503144112264994
Cs 3.4876041532835975 16.87297158873009 1.3444291055167583
Cs 14.186436468769122 15.773438525015694 0.9395918640944183
Cs 17.387562618910792 13.917730139455733 18.75505168576
Cs 0.9394135597052803 15.138742830574568 18.591927877887255
Cs 18.71502436532545 0.11566510627843649 6.565859890735979
Cs 19.279487824122274 18.4685078606181 0.9741795136952488
Cs 1.489204659868371 14.770830934064291 13.243984076443532
Cs 14.707687892078356 20.875741792233814 2.691653653940246
Cs 1.8632563668932733 0.08628061039286726 3.841219950002357
Cs 17.083592247959 14.668406963699978 13.797857745308196
Cs 12.840284954371576 16.16479083863613 16.866677370772358
Cs 20.340603451868233 18.999651828319244 15.484100319753194
Cs 19.270924007480907 17.227310720506637 10.057919095841777
Cs 10.951109276273385 19.53504549541615 20.74125133275662
Cs 4.85019798280962 18.081314984313806 16.076979155259185
Cs 11.356592840333988 21.238872504011596 15.655568072699243
Cs 15.252606198558437 19.527283566543698 12.45290318951304
Cs 16.199041740797036 19.666053487350638 18.427637068096523
Cs 1.864568657640856 20.99694190270481 19.780538940378595
Cs 2.682436187717294 19.415383719244975 10.76538479887327
Cs 18.997011869288553 2.2701546118822953 1.340838576527421
Cs 3.0609788324090683 1.466486912639606 14.836889334351637
Cs 14.324913466400137 2.786200071368819 19.924714160758292
Cs 19.920285083755164 1.3408743010629085 11.765578697028552
Cs 15.516344746050276 2.909044635567756 14.48075009515893
Cs 19.663517005286057 2.784863677976949 17.401409866248564
