20
Energy = -13.83541132 eV
Cs 14.523685246929297 4.427306122278906 1.3724343336195701
Cs 17.64723138148542 2.995207335925362 5.2809411193914295
Cs 2.0216221338912805 6.344592011900184 2.5401647627356683
Cs -0.5183041196970537 15.790399008402034 17.81798173442697
Cs 6.1728196071124755 1.9292176870511135 13.49940373795121
Cs 15.316828406000587 1.1923405237693567 16.14496650937636
Cs 4.547253939414316 16.233778751074528 16.124593971342918
Cs 0.5633758429845074 1.4816046481905651 0.6948527139724061
Cs 18.03006261835389 5.973126069526506 17.053964792551874
Cs 4.450826805468507 2.187809561164062 4.639482175560048
Cs 2.1736193672992608 11.230271625790548 -0.28525946691237614
Cs 5.459068356867852 1.934506930530483 -0.31144446441706325
Cs 4.471598632353614 16.146961145758613 2.293114096590203
Cs 14.779171287944797 18.054252211876303 2.0353795034308266
Cs 4.068292258187607 6.248020092159228 16.384329209863814
Cs -0.011508185101487873 16.810589980638312 4.719745886245453
Cs 10.444990057261549 0.821362129116749 18.176006969694377
Cs 2.3290931027682795 2.7725790180616317 9.351671408087135
Cs 1.2380303634873144 1.3559639767048373 14.627244238005936
Cs 4.2075742651703685 16.970090444735273 7.7250539496090544
