21
Energy = -13.93118074 eV
Cs -0.2563965242581152 17.78745922109092 6.284332053770759
Cs 3.7821499807978465 20.534767415569668 0.6682730615550451
Cs 1.1817762597909078 15.67587565857573 1.0648669438310143
Cs 6.797828444324284 3.2430948267681754 18.200119638167532
Cs 1.0421988132366518 14.118758686808269 16.072480672399816
Cs 1.5734068514156019 4.063003724139943 -0.9284730275779739
Cs 2.5901765098182468 0.8945151427125684 15.947231201212277
Cs 12.421067851896552 15.048040960233527 15.569151210997438
Cs 0.0034730337185085187 18.67734501023159 12.580577861465327
Cs 18.050957968837054 2.380419269663711 17.519158219669155
Cs 19.742920055432908 0.5248648970673376 1.9788875981412963
Cs 17.157557492520507 16.6046014313343 2.3805370613176793
Cs -0.789434291135184 18.600737398053674 18.30186454677229
Cs 14.774905611438228 -0.1449871648037575 0.009016092936202608
Cs 12.048816362236145 2.234120736316692 16.995112450565347
Cs 15.455410394963424 19.0844237290072 15.706117198607268
Cs 17.270186824950525 14.242267650376176 18.56959691396668
Cs 4.882988199139744 16.996500998297147 18.028053003412413
Cs 9.264016180530986 -1.1824824839994168 19.94460408468606
Cs 12.674029226181283 15.918746508587443 20.588642978095955
Cs 17.63521647865289 14.762395191197706 13.328822929436047
