26
Energy = -17.81994093 eV
Cs 13.510272355616154 4.200523969981938 18.22824646383372
Cs 12.179426035437958 19.152640513043742 4.333171216410498
Cs 11.048745588402413 20.49046498592051 19.947759208336336
Cs 18.383543215453084 3.2625445238680166 16.38996204394279
Cs 17.58987414496214 18.12740418747579 4.489235922720169
Cs 13.91875327405722 16.141209393938798 0.4035972199846259
Cs 13.755510113732699 1.0275673011216544 14.042882194893377
Cs 15.487634791596971 1.191496525195818 1.451159627850317
Cs 2.4723734996307973 19.050921362249767 4.194883403375807
Cs 2.2085889883120533 4.992670476899967 18.512967249199573
Cs 4.847080564773257 0.6537869190079578 -0.49197071390514324
Cs 16.550209414838964 19.58232061698505 18.130747247741684
Cs 8.15560433764106 3.163699719762577 17.183136989026465
Cs 0.6567506123571989 14.162816668501291 4.1775306897207045
Cs -0.41676611926237 0.6707268898154446 0.6473330426251458
Cs 12.759872304388878 17.05504004303054 15.863500212400035
Cs 14.578968653639636 19.500176020967945 9.200467525673744
Cs 19.271800929822497 16.291004460150482 -0.008996107221452327
Cs 0.925167062396353 -0.782467462255873 16.556713716651114
Cs 3.307591604921017 16.526122379915417 20.61028509066824
Cs 17.7210837726552 17.724716854105353 13.28335720065427
Cs 16.415583231397076 13.31767815876326 17.444138380634556
Cs 0.26275526265400606 14.917352439775591 16.148650241828317
Cs 1.0572162711822326 11.416005689846076 20.35590432072903
Cs -0.15559623933068342 16.93597965590323 8.819416900465127
Cs 18.765308463044537 8.478858871595648 17.337181877325904
