20
Energy = -13.47342616 eV
Cs 17.03756035457383 1.0506652498959164 4.494350121450164
Cs 5.156934229449782 6.895012935288979 0.11821810166247639
Cs 17.69294357487849 15.344154560185673 16.67979901826666
Cs 2.360954566905806 17.379251865222155 7.04882007959916
Cs 15.317907647341972 1.1960857123758657 15.021402876758334
Cs 4.34051016255483 16.05527765117859 15.688375487213149
Cs 4.160475768264533 2.6734572243168055 3.4636098516734295
Cs 15.426870591004128 6.039317157647073 5.551444437563891
Cs 2.8335996050126684 16.46734027222555 1.7744450321029326
Cs 8.113849948912089 18.103533490726313 1.3037597970431531
Cs 1.4584635105857244 0.8206777836078384 12.616726237442
Cs 1.3797532488695101 4.073285117373154 7.726355452438414
Cs 5.887262979958228 14.122687224886333 4.775653591964912
Cs 14.929715974641379 4.476807808726329 0.5368762568947795
Cs 5.334711930867838 2.3033542348536398 16.363103767797604
Cs 0.53390551476804 1.565824198605155 18.506936212264815
Cs 0.9081137017350956 5.525937226372671 15.603354583743599
Cs 13.586799867503114 17.563366770595948 0.9040306809669162
Cs 0.8040610367939625 6.918753104568889 2.6582302004881537
Cs 17.16701368835828 14.489474732294765 3.595916115643972
