28
Energy = -19.11928114 eV
Cs 14.944594872122147 15.44750293767544 6.383312580242442
Cs 16.98617165550809 13.515616974535321 1.6022756725214022
Cs 14.580164762942928 19.664451584425414 3.2239459629918517
Cs 11.90294932116096 15.506195657876635 1.2050827977040688
Cs 19.79105331871358 16.963809850954668 4.933808908291481
Cs 14.715684824971069 14.58083668025318 17.915045897262377
Cs 16.117757893127052 1.8607316982110371 20.388743839349736
Cs 12.298193098743477 19.25795477450636 19.000615922515767
Cs 12.716542662028978 17.39321265280844 13.505823924756244
Cs 0.6606898748952573 12.609096077697941 1.9793752461556822
Cs 19.400561986720803 0.675133162411887 3.0984949146950935
Cs 17.53898955839367 18.1971571155272 20.605658921050562
Cs 15.927072188626994 20.98435689726961 15.511544891864013
Cs 19.27394039864163 6.15149055071904 0.2611393467116223
Cs 4.50792811216048 14.439116103202812 20.035473498972568
Cs 16.045951377779097 19.773678997281866 9.492205642331495
Cs 20.34174955921959 14.052359813078205 18.47035241028581
Cs 1.2164763125764975 18.06634972743858 0.532847847648015
Cs 20.981439859383602 19.75057243357466 16.581894684209768
Cs 18.586176430919966 4.141560335778122 16.18815339071724
Cs 0.6448946898809282 1.8722691628438728 19.9449552381184
Cs 15.790873485483498 3.468442766333403 11.774030886090168
Cs 4.921112989319285 19.383636447373622 17.91858626652019
Cs 18.179189084662678 16.32141429592429 13.755082442770245
Cs 0.267564006626432 17.366209702916535 10.00603503129925
Cs 2.5350213985150525 15.642480224853934 14.84086050581382
Cs 20.16829673989676 0.6632459690753258 11.788314874535876
Cs 3.698754200339808 20.556402410187033 13.072825722277472
