22
Energy = -14.99654237 eV
Cs 0.26620728226439017 12.946361714406098 14.544843114982344
Cs 19.202544482648555 9.456057830380637 18.449132035557987
Cs 3.0144753460344305 14.803073886792577 18.62450212066473
Cs 2.032488359639418 17.73560516206028 13.770582078935306
Cs 16.55857707417266 15.885223604852483 11.692989571536478
Cs 15.036076687765643 12.324073088129849 16.16349733852997
Cs 0.3270727974258194 12.948761230791957 3.1902037120935107
Cs 15.333550378285992 11.538862903960984 2.0605209814554573
Cs 2.866839005839117 0.39689806529185995 18.484232954902385
Cs 18.354971586549407 1.3649060190811164 10.556647897387128
Cs 17.624911147865674 15.660497930686203 19.043019163113616
Cs 1.4969505695984793 3.4252965781706357 14.642836755791592
Cs 17.326002468273877 19.2429113434987 15.83659723276483
Cs 15.964287248642394 16.023140475951276 5.507456787329022
Cs 0.29738029613564393 18.605277773751205 2.8711575463018884
Cs 12.473203739315595 15.879400157121127 0.407496158251188
Cs 12.066663398676468 16.315797089897263 14.914856144049454
Cs 13.426223903415885 0.6788788289863119 12.073793918371061
Cs 16.28514790155107 4.818466408494872 14.112823952038424
Cs 18.211974470287174 3.5681652891870983 19.2890869692156
Cs 15.057126736045397 0.28488546377615664 2.2449382021734645
Cs 12.835817315404793 1.2729394042334252 17.43330441648482
