27
Energy = -18.73163709 eV
Cs 0.28895914422694574 5.49340670488927 15.818340766233637
Cs 17.64701922452106 5.247862112185292 20.24975089330743
Cs 1.5695011730580148 2.877568954122937 20.655392137669082
Cs 19.071106879109408 2.3414748681335533 3.9317840876460286
Cs 20.59073044584462 0.25386882461525995 16.532690080532873
Cs 16.339649052579333 3.150653395243274 14.917985162455697
Cs 13.99894566613431 2.865789105430728 2.8780461547297014
Cs 20.116605708671305 1.8260300146221442 11.364077184702229
Cs 1.959917586069885 17.78428212593505 13.329276251256173
Cs 3.656008361110885 18.437072411624793 18.65298993365841
Cs 0.2575479658950587 18.693903246279984 1.8103076089053056
Cs 12.812609589505428 3.418494208062778 18.6733587384403
Cs 16.875977924989275 20.775049699886683 19.93624080809158
Cs 2.5906906863082106 13.98556783057406 0.3917247392062125
Cs 17.372414611305015 18.552231558146932 13.20803819314933
Cs 15.963911906568917 18.668547012295406 3.6396493260148137
Cs 11.29955429102237 19.88259124223775 0.5053441089795399
Cs 13.303110383657252 19.19891309055316 16.441153960346632
Cs 19.336289264678243 15.921255180358594 17.899568639713742
Cs 19.84132343585923 14.073044187093718 11.761841773680455
Cs 14.2999470954566 15.595700381798048 20.368278941817778
Cs 18.55019866427618 13.843906642840896 2.2041465957837922
Cs 2.4399429294486996 13.057537612854704 16.05961083874959
Cs 0.5378766528024386 9.270237155249749 20.00171159023563
Cs 15.21695059180902 13.989733611135806 15.172880690677816
Cs 15.930637395278998 10.477438779081792 19.48250226508279
Cs 18.80741295629336 10.049640287424277 15.003592595967898
