21
Energy = -14.13731428 eV
Cs 0.7766772562220033 17.32495436170519 12.362514730808446
Cs 1.9079407922886846 13.228879531252407 15.322316317906894
Cs 19.757068896841535 1.0269715497020369 15.537567414346558
Cs 3.7101509430247477 18.457453937224308 16.81441810400405
Cs 17.43181365362606 13.25287674714645 13.24248020974399
Cs 2.5623232076524523 14.517637963241107 -0.008124389306486235
Cs 1.9033403958112818 4.337296835191148 18.85797296916239
Cs 16.171629528254368 18.477233273860673 12.353255920811012
Cs 0.38413152407320905 9.645824858223085 19.112948815143753
Cs 18.32319179359147 16.304418747981934 17.33848803911708
Cs 15.444967978891604 10.979379258042997 17.86458962936059
Cs 18.06987748481362 13.889686685771316 1.643456029159164
Cs 16.941326217577423 5.736255163988777 17.196198141622574
Cs 13.112585729858418 15.42283249846152 15.407019260062468
Cs 0.3881427862454937 19.385934053260968 0.3870293265525285
Cs 18.07479715312653 3.221312955830399 1.3705236011409614
Cs 15.010975796673586 0.025590768544818017 17.065851445466887
Cs 13.12379834648658 14.88447764266338 0.25404479411167363
Cs 12.998535445788859 3.5654137251380282 -0.2546637474613902
Cs 15.409199081298132 19.10537853404872 1.7787569441584448
Cs 10.181192349755383 18.740699289152996 18.607406530718258
