21
Energy = -14.16436768 eV
Cs 13.497689431837324 17.348155100437133 14.131311475028287
Cs 17.459360676397313 15.082891076620738 11.349769899850672
Cs 12.679909609647874 1.1718419765492984 17.491498209830727
Cs 9.000527186475717 17.109135495637116 17.82961998216244
Cs 14.05250293829442 12.401753055612044 15.78305085882074
Cs 16.53048583022631 1.8393778722904537 14.015602213277091
Cs 13.860574817757154 15.954381237772811 -0.13707884528383407
Cs 16.346291002704582 5.157233019097438 18.74622420327385
Cs 14.236552504262328 0.6132174151790073 2.392902527490836
Cs 0.6413467828311742 19.21398732806138 12.657317343268236
Cs 18.098171196828616 15.622559110278416 16.37652488238291
Cs 17.834130241816688 19.584224907074095 18.69854949768521
Cs 1.1298172164579559 2.9953016265637 17.076005188948837
Cs 2.2629411878539845 14.155505738454094 13.62680136692478
Cs 19.101065031717958 10.322471113133384 15.369936726666555
Cs 18.985625154213857 2.505055471840901 2.842204569731349
Cs 16.98515518265246 11.487805135164178 0.280154013783292
Cs 3.8042412620433703 18.272443551148744 16.615310474072146
Cs 18.094402137589633 16.332265382285826 3.126209221961778
Cs 2.498131454759912 18.85849800639042 1.599868758879961
Cs 1.739836054524504 14.033569743018537 19.427615960054258
