26
Energy = -17.42159948 eV
Cs 2.048714644038208 2.6712547708744685 0.6329299778688636
Cs 6.486913818404961 19.630613849119804 0.7754624043490668
Cs 3.985241424299273 1.021654863514941 16.27625835262026
Cs 17.910716366783344 5.722258712929294 0.006916822351105419
Cs 18.564535995128278 2.0552937950364383 4.102342641952956
Cs 4.7406342430310096 0.8834627349320494 11.258928336746512
Cs 1.4164823463625684 18.531038751992806 3.4123346632787204
Cs 3.026499161301723 16.79896387177544 18.468128196632975
Cs 5.132285344985028 14.890690773841914 2.5434368304406654
Cs 0.686589575731379 5.125007562545581 16.413818233839525
Cs 13.465792868116322 0.12371583308447158 5.1289402842674665
Cs 14.616267378938721 5.2441933586330585 4.3571247894742395
Cs 19.46597656361522 20.2517091521435 18.18183542235966
Cs 20.27446288827276 13.854974316435907 1.2784954454560862
Cs 14.347954374679853 1.784530881383522 0.14718128871002523
Cs 20.256457490314364 1.9001465409163572 12.434207628245625
Cs 16.165907631514848 2.8203110339645705 15.790141498662354
Cs 16.77182587495578 17.841313504503844 1.8024248711948034
Cs 18.838184744768448 15.117089170905743 16.772364852476258
Cs 1.8029463775281709 17.41944236524345 12.987051144057276
Cs 11.271460723837276 17.04716629371998 1.5537685732126225
Cs 14.18751600951186 18.188973633905473 17.43447552560011
Cs 17.04361649578582 18.466476876315426 13.053703861051144
Cs 14.363436564446578 13.857918648317003 14.226793973902048
Cs 14.853749714939813 13.377863246831605 19.998986221027813
Cs 18.956616062364162 13.585576217647995 11.594209193269451
