29
Energy = -19.85808251 eV
Cs 5.3637944876115435 20.83551389855469 20.100368992948752
Cs 3.429514130266235 16.862574366365223 16.59803000696901
Cs 1.2359705340486573 21.53533667195249 16.83916541654517
Cs 1.6240328097101036 12.709967681513136 14.111239982132656
Cs 1.0827373544835956 1.661147881389056 0.005804879171715771
Cs 1.223945585267189 18.121717935111924 21.41584846996367
Cs 20.035062463342342 17.424568753709107 16.733170343655058
Cs 0.261273611831057 13.115316154273303 19.337289855707997
Cs 20.340629052439343 3.457863716891839 17.20989430755166
Cs 19.78418550326274 0.010640991830567157 12.706410663189315
Cs 19.488272359490864 5.78479031650168 21.861931308035803
Cs 22.10040293926297 17.261501057766726 11.936488937161734
Cs 20.323975990267183 20.194440395965035 3.294117311999452
Cs 21.120373559917166 8.714766769325166 16.72604379856954
Cs 20.52027311246478 3.147541779536652 4.55122962365679
Cs 16.297636413906304 4.594092522617209 14.269906773711865
Cs 18.527323362796803 13.116327790360883 13.98432086105909
Cs 18.82080548737262 21.55123940379675 20.335047752014027
Cs 17.15604655625785 21.961305950125936 7.580917993341598
Cs 17.127010016465498 11.605204766958622 18.93490221704449
Cs 18.434580618251527 16.207560893970182 21.843836167797576
Cs 16.746516079894146 17.829416402059177 11.623107097334481
Cs 16.047751639046606 1.6599330406279957 2.210854495224244
Cs 15.214449818306255 3.7322575356485057 19.371798484925566
Cs 15.758157367004967 21.455792263999502 15.881311773321979
Cs 15.009254960410372 16.188684479896047 16.851610298033837
Cs 13.825399053168999 20.06653668591978 20.723048526925094
Cs 15.22153964747801 18.538099459451253 3.6032990375529534
Cs 13.548152195630934 14.803173712341613 21.84407612355988
