25
Energy = -16.52767285 eV
Cs 17.378568038628288 18.63965263493218 10.55484852911527
Cs 17.80477356687162 13.22149097794022 11.105926967189173
Cs 12.615240524436853 16.87523256678087 11.251479901038433
Cs 0.005381321388050855 16.985474255850832 12.479470968741103
Cs 19.452757437010728 21.249237287972576 14.804965700752462
Cs 8.505937090238893 21.239651702668514 14.410226188491132
Cs 14.231982715772281 21.10991057791778 14.253232851210553
Cs 17.13731923746516 16.04085632289021 15.370100395951908
Cs 17.826968002567455 10.574446647282192 15.979637680323313
Cs 0.3802936580291922 12.07167993608999 13.863249020614681
Cs 13.325507469506768 12.601325318751071 14.005037359532023
Cs 3.0486880927590416 20.82330059900179 15.620518074055719
Cs 11.39200399964099 17.1323793435972 16.436553764210643
Cs 11.455147532716875 0.534196684477244 18.705667187226446
Cs 16.257223663274406 3.0840833280436653 19.504384862272016
Cs 16.175601122708155 8.626909010944098 20.79734186879868
Cs 0.6179677829732956 11.053688419940022 18.7517183640723
Cs -0.0021973984987897575 16.709932190088953 17.796123064642583
Cs 21.089575485377356 0.14302189059129042 19.460765491732303
Cs 16.064249193187138 19.23948168209709 19.172992402115504
Cs 13.47431735437513 13.421912746270658 19.451393467605577
Cs 18.48263575752794 13.814866614226986 20.29812170756177
Cs 11.516804301156201 18.081821466683806 21.788396446720064
Cs 19.670072025326693 18.282980404738225 0.8962901082589049
Cs 15.336562409413181 15.543076356784225 2.270780885681538
