23
Energy = -15.90153432 eV
Cs 1.757770090123228 13.462714449314584 10.844361372704222
Cs 19.272712173003193 17.671814065553612 9.236576926501064
Cs 3.136629537338972 18.191835031543313 13.791173453248149
Cs 18.63646741156394 15.549250177574601 15.143873627443698
Cs 0.0852805522062794 9.803136283648328 14.392336148640176
Cs 3.71455355102963 13.383471516836511 16.104015431594313
Cs 16.141117908396843 13.246617716968746 11.456515138837858
Cs 2.476542103882977 17.0898346783201 19.695050577910436
Cs 1.8903464199415445 1.9290360556967316 17.637256180112512
Cs 18.19307382217885 0.9385237053041989 13.767695731394493
Cs 19.57183050930412 12.424283436845883 19.43808440565729
Cs 19.466763018675298 15.426905357160782 4.301915376483004
Cs 15.28980552402707 10.9151989800452 16.570829601180424
Cs 19.307923106486964 0.9282697483809415 2.745659048537837
Cs 14.903739356950464 14.340746515191668 1.1785153882170598
Cs 14.206729816569178 18.43830590819287 10.883574564189345
Cs 17.35955380623883 5.130719089138641 17.35341665591562
Cs 16.98756668661318 18.48697972805068 18.76150819245639
Cs 14.646339796109046 18.478683737054737 5.143926644707064
Cs 14.411784367237347 2.495451770045299 1.3790347881710108
Cs 13.115789967723265 15.718443972819758 15.530626152411045
Cs 13.36427472937372 1.2502207613835854 15.880745320812137
Cs 11.45905382532493 18.05767670571641 0.14900014990719077
