21
Energy = -14.31663471 eV
Cs 0.4250259549998292 11.262288539601048 17.863271875031188
Cs 18.677258336061787 11.809640906883635 12.398627451149679
Cs 4.128977518917331 14.015094353757023 14.30005188167857
Cs 14.0267085128811 12.672562771383769 14.836414570354941
Cs 18.83451858750465 14.83175307687319 2.8597533110330056
Cs 4.030259073800775 15.990726957294031 19.211307513016706
Cs 1.0939491703992104 16.749973908025634 10.752257839983647
Cs 14.806979541737784 12.509038068984873 0.7858841835876202
Cs 15.251255329076322 15.375390830471508 10.282402216391787
Cs 18.428455737107974 15.641925659834994 15.82905588378774
Cs 2.343605667980162 0.34183158043252393 15.366173231843968
Cs 15.020519277855424 17.956329813445063 17.902435604751364
Cs 11.783719134766608 17.438720274950974 13.988980038934839
Cs 10.208220050754548 14.624915806310943 18.316061782141997
Cs 16.63615968013245 0.8040184121778118 12.924446031499166
Cs 0.2522149554187914 0.5131910001258798 1.0615731487200115
Cs 14.00057381918738 17.14973845964736 3.456153978058759
Cs 18.115071616940572 4.454824003597624 16.88202826022978
Cs 10.016181934960002 0.5276453038340618 0.025896384250094218
Cs 13.029917809722349 3.2668056201981055 15.790277136234693
Cs 14.808251926140834 2.989937777731933 1.6320542407430785
