27
Energy = -19.20350665 eV
Cs 5.1952519718184265 19.8682478043064 1.351391589357711
Cs 7.652327434811305 14.929816591025318 0.37038675919787734
Cs 4.52241867756788 4.764427802026411 -1.2630591303290333
Cs 3.6393963128238354 10.55349232037736 -0.6431843144711813
Cs 0.36707513163787103 0.7411611654798415 -0.6221527491340951
Cs 3.286205451085925 15.758013393906987 17.607796816092364
Cs 5.423723260695711 0.12527539338746896 15.71816029579298
Cs 1.755462428348494 15.824754678704224 2.377173371456729
Cs 19.584420617182882 7.058271812213042 18.224138970669333
Cs 0.2464023271040826 17.95220037087931 14.09752476520066
Cs -0.5181726034436999 12.33753587596063 16.091231911029784
Cs 17.098620713231693 16.98808647837961 4.784825284851194
Cs 18.099564844529972 11.95287081567615 1.1461629400312616
Cs 14.307118042817729 12.20213241599812 17.365512040319327
Cs 17.466058097477603 16.570109278195588 18.834325804915764
Cs 13.14402818789274 14.501563054024375 2.216112668228515
Cs 9.927059113422565 -1.504382825882706 3.6411913954427173
Cs 14.458437601048217 0.0033991206121984354 1.271703669755877
Cs 0.4871408522715338 3.0164600739607934 14.822907474890382
Cs 15.422129417977258 15.718374343559567 13.455997336515471
Cs 16.721610065610236 19.96904503141079 10.69917661967145
Cs 15.701680259421769 0.8801260730154203 16.03917727990621
Cs 10.013806500533413 14.971467219178948 13.237578749091723
Cs 11.838025396104387 16.98449865220835 17.734207700649847
Cs 9.541258864659229 1.4548680914378103 18.75759934244442
Cs 12.426999833513822 17.212489235979024 8.332518887306902
Cs 11.18579839602931 -0.10422088369327592 13.19245686688439
