29
Energy = -18.9640854 eV
Cs 1.0712355574861128 21.511022912495893 5.810937400730966
Cs 18.514670147913804 22.1891339981115 5.252007083715558
Cs 2.9731668902770383 21.492433178493183 0.9643872600030063
Cs 3.759229821456952 17.166391441846432 3.9233483142960517
Cs 21.76667613383574 2.4473428136735147 2.303447266758773
Cs 12.756553555045155 21.394246215718972 4.910796025892767
Cs 21.202715862752182 17.55730641436382 3.5225687745584016
Cs 1.8825325236166925 2.82365324397547 20.53565112236668
Cs 15.669172092433671 1.0851227756093162 1.0673367414092734
Cs 19.197230781195913 3.387556082277644 20.2515615607114
Cs 4.33389052701436 20.424341608879114 18.658070444426787
Cs 5.258746318611683 16.2109160415218 21.772030772592185
Cs 15.814204929917635 18.24354330836506 2.260362380329642
Cs 21.766909582015142 21.916966602433913 17.812667017357
Cs 3.959622193124055 1.8097835220049492 15.798199035476937
Cs 19.78355956557352 20.980083719064222 -0.13399394465284273
Cs 0.4719813647196834 17.73064586946578 21.05575504772819
Cs 13.77588369455483 3.7918110964184253 19.593292303412376
Cs 15.953692995875262 -0.8265894018482431 18.392979531894735
Cs 21.886000541765238 3.9191903355796285 15.544676864173812
Cs 16.77427505051519 3.9264798781568735 15.413217870587198
Cs 1.2058457141411691 13.258900223780756 1.0960480676217828
Cs 18.80257100420964 14.633757135016989 22.445561118216975
Cs 18.67242682217514 17.449274264223785 17.748022043354975
Cs 22.169644852981445 13.255562789695382 18.630605908801353
Cs 18.36804657755567 21.76739449012446 13.642617632903441
Cs 18.644057080199993 13.375560446854031 14.480804027245988
Cs 15.387179609855062 17.290373212603846 13.518795500914834
Cs 15.837874042180424 19.700875618854255 8.984181627470209
