22
Energy = -15.00285337 eV
Cs 18.59400800055836 17.361299223257138 3.9762776268108246
Cs 14.73681064855385 4.959716399278196 1.1071156851964161
Cs 1.7942226240457744 19.785909001113556 0.3486244645399672
Cs 13.293003584999028 18.361656832632068 2.629953082631728
Cs 0.2612921941631276 4.600203977053718 17.27027167235347
Cs 15.07652353601591 13.36966516749136 3.0243692971377922
Cs 14.8104877907904 4.1149577748442026 15.952089520319975
Cs 0.5108880719816359 12.105188958218237 1.7046117856469405
Cs 10.943623449338737 0.4586888176919389 18.1014828060003
Cs 16.51339445100851 0.3928110960044578 19.135322210637064
Cs 17.89205994568522 15.246104200680277 18.91285976793734
Cs 18.740774509894365 2.3677444556409353 12.618187294508306
Cs 3.170966303183264 14.971841829199139 17.846718904658868
Cs 19.017797534460275 18.25942354540352 15.311720833937185
Cs 12.894118059239737 15.344610104955173 18.007984936638877
Cs 15.53890903998528 9.885419703772964 18.90657856995601
Cs 0.532705264898297 10.261250785119778 16.290054223562997
Cs 3.925492510717371 0.20270402610442695 15.503486383571822
Cs 14.05032071214682 18.84855035368714 13.947956919454514
Cs 1.51604178005463 14.724455919832328 12.83363984659271
Cs 16.327351682251074 13.436411475428772 14.080035158546767
Cs 17.233037482693394 16.91830504444002 9.824311314005282
