28
Energy = -19.38780327 eV
Cs 8.736395991587933 20.557400633927546 16.6893289648746
Cs 3.454207146694122 -0.9895090882475311 16.338447361040746
Cs 5.214548060529419 2.9215832390335246 19.476977257745645
Cs 5.992992362186249 19.503768786748022 0.6722344339006336
Cs 1.0809010648521773 15.727225479261902 15.515457809570014
Cs 6.4119930247982335 15.873387341487867 17.617494149957757
Cs 1.06913109676657 6.137393718549287 0.16075204311472102
Cs 3.1901541998019196 2.004072809738483 3.0659203988636623
Cs 21.165993163911924 3.4613137560607057 17.347940270342164
Cs 1.5483689348561096 11.097373010835927 19.08407462040757
Cs 19.257377818071284 20.389675308001845 14.999755609202133
Cs 2.413760763809138 15.808049839069065 21.066115862630628
Cs 0.6723158977345155 18.67111841983512 3.99398357521229
Cs 0.13751444153777556 20.53087262777827 20.40563702442619
Cs 16.002794604134007 3.470570858107173 16.007401503321567
Cs 18.405365428494317 16.01622455394107 18.941320971385895
Cs 19.201606288113968 1.9021512044658058 2.9268955232910665
Cs 16.79608104166196 15.879780875151397 13.887355414745622
Cs 19.60746927735138 14.010244759416759 2.287787583392279
Cs 16.134471241327525 20.70150289136461 19.776429236373207
Cs 14.493680874754153 14.265272181669053 0.6677199883091743
Cs 13.737393705505779 20.18462193654081 15.149527474003886
Cs 16.604810299479986 4.945299673377586 20.903320773349634
Cs 13.756450624579097 1.6465650038079531 2.8989704527929003
Cs 12.540676145857953 15.756595395728574 17.33847713237195
Cs 16.60142274326775 18.398940882011722 3.2311105888493343
Cs 11.483658715675201 18.73067763929378 0.36540297484584733
Cs 11.756954045882296 2.5536940866295503 19.340028825265343
