22
Energy = -14.81938363 eV
Cs 3.484945171688154 13.846669134968142 1.0236803887133104
Cs 0.771997867624984 15.017313235123662 14.226759798449532
Cs 19.508796787519444 13.499579578771613 19.02747145317075
Cs 4.909912013884355 16.21770331141288 17.465848781342846
Cs 18.644973777521116 19.015323631726947 11.936735504805162
Cs 13.512720323936628 12.30214312842099 18.753908105249327
Cs 3.242464090718884 19.525367378862725 13.183680838142244
Cs 19.661798291274945 15.526799467930356 2.9838613856929337
Cs 16.034117121520293 15.53592332229808 15.392013709920436
Cs 2.9622803428313063 19.147723298779205 1.4449131137223719
Cs 4.868336074122072 1.0455060438253267 17.843506630132445
Cs 0.6382100062808785 18.649371523613446 7.002567887947485
Cs -0.4032429413508735 -1.9225316879804368 17.986980775942264
Cs -0.13311818109767107 2.441594142204105 14.865506639872864
Cs 15.553527270818126 17.0865271531041 -0.14019373710329674
Cs 15.255732475715059 0.03092979709924162 16.02347070050934
Cs 18.64682130643395 0.13958666967504135 2.3294805664139844
Cs 10.758782411648193 17.47212201803993 18.225070614448704
Cs 17.87643609488786 3.6031774069597042 19.045681703856957
Cs 13.491650003142523 1.3016750773932226 0.11389705208459779
Cs 10.069233402112314 2.625942142046008 17.0944962480851
Cs 13.595574543547494 6.718641581033046 18.731668502757927
