28
Energy = -19.7751628 eV
Cs 17.280495882818578 16.096475320986965 9.91754126045077
Cs 0.6396634619242645 17.556009916547925 13.617856740728364
Cs 18.99781721543925 1.0202533718494358 12.315523356443276
Cs 3.694115929974186 0.22969541544262537 16.25000014658014
Cs 6.455853870340903 16.375152800240627 16.67758915685161
Cs 17.822383706163883 13.728839162048159 14.683083365866713
Cs 14.285887320774075 -0.03364567423598969 9.834491888073432
Cs 1.8272222150191337 13.492082861334818 17.09109417373718
Cs 12.72312644916179 16.672551566989696 12.874932467707643
Cs 6.309259359344225 20.71308815400661 -0.005984376067468582
Cs 16.66724569545922 18.619879002709016 15.894588577343416
Cs 14.276795388765688 2.2007391580732985 14.810932298067911
Cs 18.710076226119245 2.21619495797298 17.939251279896173
Cs 0.5309389065422017 18.243933205434466 19.141336642055148
Cs 1.9663862760397341 2.758258445237083 -0.24295827794577124
Cs 4.458321063056599 15.476989742080297 0.5540976460135966
Cs 10.06205207297423 20.16796107849754 16.512878837547795
Cs 13.426424174345476 0.9765019168444794 20.066462531423273
Cs 1.8363338782157843 19.56208547540039 3.126109209429592
Cs 18.211639922555392 13.49949344682907 19.838730228313946
Cs 16.929027084095434 18.47211659410066 0.4300129805749397
Cs 18.33634446504357 2.1011085111214736 2.4641382893326114
Cs 13.230643264440431 15.223806434442698 18.12811319578164
Cs 19.912837548764262 15.134214855041213 3.7421828522813523
Cs 10.099001280692931 17.27639798715001 0.6899736524623855
Cs 18.74593201596469 19.85048528517524 6.597681837615337
Cs 13.529419339570019 20.044850887536953 4.362500468987373
Cs 14.688191477470554 14.690165700944538 3.179348350065216
