28
Energy = -19.38666948 eV
Cs 18.61647542557935 12.276138733336625 1.1373748502568397
Cs 1.931056036374581 15.912479663598956 1.5464273799803008
Cs 15.437558490713007 12.11965354329217 17.703119603686275
Cs 18.233587761657372 17.045165147064633 4.4075529838503
Cs 0.24799016178201977 13.578014627425306 17.323727081851
Cs 1.9461411089544716 19.826324820425032 5.218605992552305
Cs 13.940200700471552 15.51532297287112 0.8864446230207265
Cs 5.4940518643100615 20.176669882476755 1.3443907290533592
Cs 13.006765025156922 13.29291584994632 13.006807544094674
Cs 3.773802785593093 17.70588218442839 17.589259699510542
Cs 18.19872355902133 17.32006327806521 19.611378030616326
Cs 10.91482674246562 15.353490620705596 17.157462617200636
Cs 20.72200107764302 0.2462206788004974 0.13402501624343777
Cs 18.107140579490668 12.11807772350367 12.999952109644934
Cs 0.5236722216688408 16.295903336150186 12.699085169770077
Cs 1.9704466296420375 4.220070553233216 2.0941518564782764
Cs 16.5521898214614 16.831204548295254 15.133392074073328
Cs 0.3530647744633624 0.013498096140522742 15.384419722742573
Cs 18.61425055748284 2.1048220692499187 5.2423399615099875
Cs 16.15800143834785 16.144328234488775 9.725916108019218
Cs 12.3627282578829 19.930414352179078 18.500071892598083
Cs 4.294301102853701 2.328080106254688 18.374963926640657
Cs 12.62904820058284 18.89753400094929 13.02325977239362
Cs 17.20264043734074 4.569697119525407 0.6577745661757164
Cs 17.713823388897374 0.12641556372747498 11.267657951276535
Cs 15.119229148664509 -0.013848837513775384 1.9335384079739681
Cs 20.691632777710826 5.155361962710677 17.770795082094306
Cs 16.53153655435992 1.6278378765438224 16.811428528732932
