22
Energy = -14.90450672 eV
Cs 4.959347422253826 13.8324463450679 17.613235600046693
Cs 2.2161854614616967 15.642274975524352 1.8010143951924606
Cs 0.006305075442898698 11.651477085074154 19.767172449822105
Cs 4.378541397246906 19.40285773883516 18.361950218652176
Cs 16.721939913983118 15.956214693303064 1.7437145350416916
Cs 2.8141283621878475 16.750191020108073 13.576604409614108
Cs 0.13169659805770903 12.401560642322375 14.571773530711361
Cs 19.914591194196127 16.779470574988608 17.57047750585987
Cs -7.307465858992493E-4 0.27590690625199626 0.8860337096258244
Cs 15.934385838281768 13.286199991409273 17.105066424611536
Cs 2.2651803131008714 3.9467003400092473 17.84785245602102
Cs 17.612992676249483 16.717952099272615 12.41032589101178
Cs 15.575615363004584 1.3884547860933598 2.2918025836924127
Cs 15.193103650589293 18.62937847735013 17.981568761911685
Cs 12.66389407023163 15.84789161961105 13.910152811712292
Cs 17.280410692879293 3.4272328959416907 17.87483885350299
Cs 11.013748935222486 14.547431806048467 18.99500004495563
Cs 20.016328114151595 0.8673959503769084 14.323259361950385
Cs 11.282038625370774 18.749649318297756 1.7642312736669372
Cs 14.452792420718223 0.768558600609245 13.686371147442738
Cs 12.017388886754356 2.646370454262513 18.617528497326138
Cs 9.36580334766246 19.019147002295597 16.71412468223732
