20
Energy = -13.2550409 eV
Cs 1.881697603584643 0.23792853891379181 14.228927810633078
Cs 17.23082294044568 1.1215749924506302 15.625357323803149
Cs 3.8697201487374877 16.484314974802626 17.13961901359828
Cs 17.055873326549552 6.630549898285374 17.676378070868157
Cs 1.0154473933352781 3.415457438969857 18.853133797927264
Cs -0.14950454739110564 18.74928208910249 19.82699815395892
Cs 12.961493202845896 2.9133641094044336 17.483622353843955
Cs 14.936047456030037 18.361310386107295 20.01280270136592
Cs 5.750875681607026 1.263868140990879 17.746707451864488
Cs 3.078684200825198 13.292135277556593 1.076382586392818
Cs 16.360661165513477 3.2749811518316947 1.394114860483962
Cs 9.81247826336186 1.3588544987621456 1.1406427205526215
Cs 5.014245314326781 4.627393703817112 2.1447377317687986
Cs 18.25495155981044 13.6108947416039 19.85598141435925
Cs 4.512026878688461 19.003351610315484 2.097996411261684
Cs 0.7284568469417517 2.2753281980357576 4.137081964984356
Cs 16.351842860432104 19.76000541016073 5.084587755930577
Cs 0.5186878714329407 8.04672756092505 1.6394750991248959
Cs 15.966770166412424 14.719109061045069 4.145899734239953
Cs 0.5362202564357792 16.673054951304195 4.6410279218816735
