24
Energy = -16.79288561 eV
Cs 19.17987848028994 1.2534003071283992 11.697271983211984
Cs 0.8460356829600504 16.263865430547444 13.373857088404625
Cs 16.443614255188248 13.369426106885802 13.923291667815555
Cs 13.802553804579098 1.7801415797600209 12.099080903717564
Cs 1.2913406524128788 11.493951602938099 16.313192976005872
Cs 17.097017445943784 4.812327808536007 15.165257344610252
Cs 1.786735608332984 0.829244089201084 16.41101106001392
Cs 16.277905511407894 18.762836570251498 15.796586962694917
Cs 4.411494716413392 15.598548648225911 18.060442694300207
Cs 12.152407745837348 16.715995757046272 13.384100815289303
Cs 16.276788292091425 17.21187607066806 9.925605072956188
Cs 1.2342563506862876 5.946812034464686 18.874176549641238
Cs 13.014064835960331 2.689147896245545 17.665516608729998
Cs 16.298302965253477 9.507013242287101 17.66080408367698
Cs 9.52084001288982 18.356045032110107 17.88645634542723
Cs 19.08276880253727 15.904566883171807 18.86566468600442
Cs 2.618798699101693 19.288206291087572 1.6573317342494038
Cs 13.258035698395734 14.163314974045655 18.0513501612265
Cs 1.1121580180720811 10.47567141346016 1.5331076276825684
Cs 17.909847508421173 1.7950024953555228 0.26821216349763155
Cs 13.954749049650422 18.337491387728598 1.245182050566303
Cs 1.7748331788893672 14.663499884966198 4.277878221686004
Cs 16.54856408652457 13.379375680907051 2.383939366166133
Cs 17.9311672093455 18.484076224191423 4.819797620902794
