24
Energy = -16.61234437 eV
Cs 18.945649487052645 4.262779528211779 19.07686101222549
Cs 11.703362377579486 18.55174811605314 18.687098457726204
Cs 19.561191011429237 0.4446194131871435 14.51862374999852
Cs 17.81272654666922 19.66989609773336 0.39377736165078975
Cs 17.026663083296267 11.32080369878998 17.398295825728038
Cs 13.864842283972227 18.653639150112514 4.729336108494692
Cs 15.647554297499054 0.6165207478466309 10.313184574496074
Cs 1.6744447566293887 0.7632990726512289 3.3364344252641063
Cs 19.465665589584304 12.456837665287335 1.5398764853164673
Cs 14.805465961247128 1.6069322424607952 16.194936868886508
Cs 2.767392900824294 16.394861990812615 0.8749749485088554
Cs 0.07648689318025373 18.29557693741763 9.78141950375009
Cs 2.680805588404183 0.8036919189756154 18.4897813966789
Cs 17.678161439585985 1.8833249616177823 5.633088446814287
Cs 3.1809373256307545 17.150820616929938 14.887624348815145
Cs 2.0374371164258394 12.231501148122044 17.4137667557523
Cs 14.97416959020795 15.003603878421758 0.5212072274289183
Cs 11.569986861663816 18.696278319254233 12.725845458268264
Cs 19.355345317048627 13.87864251629095 12.827400357677737
Cs 19.341757774376774 16.296407737405847 17.804300288131646
Cs 19.0653168062938 16.616477127736303 4.95543977350005
Cs 14.089974067484752 2.498564084038403 1.072914400697683
Cs 15.48283710572961 16.62596789923887 14.891643668061375
Cs 15.271371424932003 15.647405793678733 9.27467495365486
