25
Energy = -17.28267571 eV
Cs 14.230341910431436 14.250827006123465 21.317195727251104
Cs 12.928074377786755 15.363474571353983 16.21913772557671
Cs 14.025310443048433 19.581014839335488 19.2991210456895
Cs 15.513034109666705 10.89072897992341 17.268062408705262
Cs 18.910567071707238 11.152821561309594 21.609155864982515
Cs 16.060968812151305 18.377203227983287 2.110098510802096
Cs 15.644158037423077 19.186572296691196 14.293845296871787
Cs 18.250841563574337 15.509345168332498 18.356897709557447
Cs 16.586767013808522 2.0326356206140512 0.28061126311558343
Cs 17.68651945747524 14.42394659857797 13.458077335834476
Cs 20.6857644128239 10.608220616750357 16.197927563676174
Cs 17.708270049929528 6.499192062720827 19.007650130520137
Cs 1.2308127465569128 7.877547012134347 19.98427194915315
Cs 19.722724942921552 6.1039138957229735 2.1609507836855664
Cs 19.68351615160105 19.845398726773347 19.707377181490294
Cs 17.14848424074298 1.7880509149384776 16.83825452448388
Cs 0.119779594083382 4.227180270029203 16.034363489886825
Cs 20.255370736375387 21.217248987981296 3.2723668812686473
Cs 20.55495116353673 20.277709971610705 14.14308412084745
Cs 20.508211510573883 15.784317467613283 2.169485909063157
Cs 1.6364369470301696 14.55827301161262 19.720914375624
Cs 0.2879379863492885 2.4565620902649545 20.79737643182245
Cs 0.9580197424600038 15.540519054192455 14.69809308097429
Cs 2.5923062733475652 19.105894316068245 0.7461389347256744
Cs 2.7370064571358506 19.83614055798261 17.394258509024343
