27
Energy = -18.21105029 eV
Cs 12.082898886807861 20.627153496437753 2.5890585109514483
Cs 11.032591497245155 16.091916097920198 0.5361927848586708
Cs 14.9952960737268 2.1795415372376508 5.595394316025842
Cs 16.101927956254208 15.18254688666483 18.395723628220768
Cs 14.85641274196813 2.602199862551291 0.2740668430241492
Cs 16.58633007587392 17.02727931265596 1.3749070987126064
Cs 18.526440534568785 20.282940021190733 4.770150204171613
Cs 13.6157272572042 20.05311056714204 19.206487845422092
Cs 19.629167030792175 3.2702585016583487 3.283278936346345
Cs 0.6926187679732446 18.234763460516753 1.6433687053054384
Cs 20.566328468439178 13.766961120156981 20.9903405502591
Cs 16.484996330414646 2.472254933323053 16.77166979124769
Cs 17.502290228523727 19.288025237457823 15.519629806270094
Cs 0.11076409576936634 17.435856615017382 17.732303337824856
Cs 18.79805454365148 21.120667335798217 20.850229127292238
Cs -0.13207342719890056 0.79681407650903 16.615193043801217
Cs 20.700844685315563 5.702736265390719 15.142016224693666
Cs 19.88260503347311 4.764903777773138 20.169993348880215
Cs 1.8064998419369023 0.11663171363621405 5.332654480012522
Cs 4.584576136357507 15.732382172391036 20.82368078096287
Cs 6.551643541947322 19.989221918653858 1.5072214406304865
Cs 2.0198519912316573 1.5019859361523331 0.27847149766012613
Cs 4.492806820459889 16.077216474069704 15.505718125384325
Cs 4.663473677385564 20.954736659224675 18.214203572427373
Cs 3.405468786484866 4.614882584071888 17.98085589954219
Cs 8.729408215815923 17.980812329116272 18.21458219571509
Cs 9.271344419515149 1.486104963003725 20.036511760078618
