22
Energy = -14.98339725 eV
Cs 1.4098103221005487 14.132326259943923 14.540105447144581
Cs 0.09944595763045917 18.566374955543793 11.394184684818672
Cs 16.38021012631639 15.51342057481372 13.529996391128314
Cs 2.8563790572112824 1.7499256867723303 14.905038475836315
Cs 17.53025308659017 11.637927984668334 17.406532563624907
Cs 14.237999723186336 -0.5339723431215779 10.957179676114757
Cs 17.77101593466552 2.494823021124748 14.025135946644854
Cs 12.410504971585594 14.420210922959685 16.673942691428913
Cs 4.919663928262759 17.425344829218126 17.35419463068023
Cs 19.639232871317276 18.294233873299746 17.01505994916811
Cs 13.772351989570286 -0.21643997456229366 16.296681191373047
Cs 0.10409653308242349 6.2791579607675905 17.3409244458444
Cs 1.419648424032642 14.166685497241051 19.96034641738617
Cs 15.779449724336132 16.619712164418 19.796534562770255
Cs 4.750522620042564 17.171357540462886 2.878052459599472
Cs 9.785262151773045 17.535238456088518 0.3718597779389211
Cs 13.778259178961576 0.23285291296288224 2.765252747556213
Cs 2.7442327166633755 1.3920510024361976 0.1067758316687981
Cs 17.51091849538705 2.246896421166162 -0.3765194914818025
Cs 17.19534041699651 13.168758349318093 3.0104958274427576
Cs 19.55936251818629 18.320972493975052 3.12668409658398
Cs 15.30402403562141 16.892928795329706 6.545873697858833
