25
Energy = -16.78094662 eV
Cs 19.983411180524605 19.487704762256882 7.3930131766695375
Cs 18.69178702352596 14.659257503093782 9.443318156138226
Cs 15.57947519159945 19.191910937819728 11.010009006806557
Cs 22.062903887155688 17.5053497689489 12.071672006165452
Cs 19.578238107857867 22.329060480106996 12.065165951235391
Cs 14.66602162804649 14.228690930301342 12.847377294750485
Cs 19.34321673370252 12.597219083104195 15.042374241064348
Cs 18.047488508031964 17.535734088526652 15.189354033754421
Cs 12.946876211916443 17.911879260248508 16.348624365808725
Cs 22.800657024244963 15.842277232592895 17.514419967693584
Cs 15.831067177775838 22.278716768574675 16.220495485492926
Cs 19.728372265580592 2.336714878758523 16.468104924059034
Cs 15.061141624796642 13.252992267459515 18.268090684113137
Cs 17.114470102357416 17.89635779647687 20.12513204105347
Cs 21.538268951723197 20.904577209444362 17.122810162065253
Cs 18.29225293717117 -0.2619567044537246 20.98180016075961
Cs 1.1075438585162651 14.785775836194388 22.454064302893084
Cs 13.258242070575935 21.153863913860338 21.01635006194642
Cs 19.699096903883923 13.34701232797736 20.88758488216313
Cs 11.574225737394274 16.09009189485003 21.02313445163843
Cs 21.6529903791707 19.07113431124997 22.30721399020117
Cs 17.268202084796744 20.074401942891246 2.0697248438672937
Cs 15.707942022805318 14.690251197901508 0.8864474002776739
Cs 20.382464929275354 15.568784894519458 3.1189359595987383
Cs 12.352285001355312 18.434057555218576 2.323079775985413
