24
Energy = -16.60603598 eV
Cs 4.036455329298233 19.37842040513265 12.97207147591258
Cs 0.8972814555772528 17.79154466229031 4.6816406398251615
Cs 17.14308159978985 19.261832950722496 12.873050408339983
Cs 17.81836374924352 -0.008849738482475987 6.872098110644629
Cs 0.263255934344048 -0.3542475428779119 16.270107626709684
Cs -0.41032944211299305 4.026157903791865 4.513340258484595
Cs 16.393231278712253 18.84857093427915 18.311113634633642
Cs 0.5374321753244771 16.24729763830299 20.276014073860626
Cs 4.9293375334783995 17.024402960296595 17.567643423069402
Cs 0.2494582542513975 0.3736957582417086 0.6540867032791757
Cs 0.5724098676313151 4.6007742067493 18.425723478811786
Cs 17.1518474671108 13.51939654403387 19.01088745494227
Cs 4.259163986997954 3.8452317614932037 1.469815612231625
Cs 16.780624267980414 17.818194334887334 2.4366250775958322
Cs 17.434322803686204 8.030587301829533 18.73653799975541
Cs 4.678195176016666 17.54451066388238 8.269737973619678
Cs -0.024314315060873448 15.358264848727393 14.958119517503006
Cs 16.785353064713593 2.988559184649382 16.333002235127125
Cs 3.63368097194614 1.411694080812904 6.272808269254062
Cs 20.482160009477155 16.778703849620193 9.857926240501696
Cs 5.198145160773282 19.130438733686397 1.6957238925308156
Cs 5.090052451081085 1.4073006410960647 17.817065197215697
Cs 0.3564883908114263 1.6966523252107273 10.663803908338114
Cs 16.52189845867764 2.82523147658707 0.8961625092970673
