20
Energy = -13.66111751 eV
Cs 15.471543588528922 18.49508848743687 11.51203563250735
Cs 17.649917780753597 3.0239252674857804 14.503855401202518
Cs 1.2243726337835215 17.26823919606318 13.305720881869199
Cs 3.318501299508611 2.2522366114012606 16.49784677593507
Cs 0.7115724940336603 6.682397907054309 17.950881934532426
Cs 0.02339104096254437 12.751305159857449 16.435854600426104
Cs 12.602092245943057 1.1108830225734398 16.31824675968287
Cs 16.7223277967292 17.272257786743356 16.96824019323612
Cs 4.8801511855633395 5.219860522734516 1.6920108905176567
Cs 3.702259931885145 16.14159072428041 18.05568990208226
Cs 16.743251449725207 2.56606458938589 0.46496091078770746
Cs 2.4447183386526077 10.853071360134674 1.6196328993674605
Cs 18.062906495959453 15.340998425158407 2.3498885670354652
Cs 13.283464462583323 17.9364365672019 2.210972586765175
Cs 7.7986455472273875 0.5635758516425285 0.6796126214036187
Cs 2.0191989505822936 0.814459526087799 2.193628225795049
Cs 3.900323653030535 15.501878876379898 4.036784477425099
Cs 0.021297779117540484 5.275161265607116 4.2664209755160885
Cs 17.571554544397134 18.94423803050753 6.257378169150784
Cs 13.96432935759336 3.2663407451233626 4.796158171321411
