27
Energy = -18.60599608 eV
Cs 4.925345646976862 19.63813895580913 12.90575449240992
Cs 4.040325799671637 0.41953650879629417 17.89739907956347
Cs 5.028961100434301 15.965983123811451 16.731286149466474
Cs 1.6126237972941624 2.587801201659147 13.320511289244255
Cs 20.99112848787494 19.897121631852382 9.776382230751429
Cs 1.8533359138419028 15.301642736638463 12.007189211803471
Cs 20.069678374283075 3.3180570733411576 17.954824025598487
Cs 0.39998309955693934 18.84590747599534 15.31869717677532
Cs 1.7363461544104626 17.150317726776166 20.82275830093201
Cs 1.046040709003392 1.0713943579750616 1.1633944397122278
Cs 0.001308759853914973 13.73155089979017 17.005511650690977
Cs 17.651420307193458 0.9914268486411657 13.592099975980002
Cs 18.442735086203644 19.491541065428123 18.752854845291157
Cs 17.53787145196622 16.36717565522662 12.662853983044002
Cs 19.495183744270033 18.693337870401745 4.07872430977822
Cs 16.862593094563657 1.814929079062565 1.4137904860784845
Cs 19.06861065576983 13.72141456923362 0.9716122235148806
Cs 14.775674264742422 2.7444172524212433 17.682156127276574
Cs 16.037470426046994 14.244346232463663 17.28849833497731
Cs 15.390393358642022 17.426942874832346 0.5422016956941158
Cs 15.802281888858149 15.021081042128948 5.411730277121053
Cs 14.137935121575941 20.04319183838377 5.021933835025381
Cs 13.843128312041522 18.969761785564835 15.84489264514363
Cs 11.725464732114917 20.943867170206264 20.98213896150197
Cs 13.789319662845632 12.528685811383866 0.9950910690826342
Cs 10.780953579190689 15.688672817631295 18.744062941260673
Cs 10.811265643501503 16.477014908071983 2.9050873272273017
