22
Energy = -15.21695935 eV
Cs 15.255774401756451 -0.014365436779586033 0.7854040834517086
Cs 18.645478726989975 4.050754122180018 19.056913782431465
Cs 14.71056687013054 2.147077045092782 15.128754670235917
Cs 2.6989237347993913 14.443083287289879 0.551255307732984
Cs 14.631783454851501 16.359217260507894 13.407126419336858
Cs 17.82598053455327 14.889905802882037 4.073875615545353
Cs 12.845195460499612 14.877836287296697 1.7514950954208204
Cs 18.82098008770795 18.61412910414737 16.096224248221297
Cs 12.179860014498697 12.827003828184056 16.374263345818616
Cs 17.667334620863894 0.6864590607078521 10.914336127880476
Cs 15.158388495662628 9.874495504418357 0.2572447538849204
Cs 19.040229308910178 15.010679391186729 10.26473975561571
Cs 10.934903728645477 18.115461228610076 17.30193215988372
Cs 17.153418552559874 14.584069849802626 18.245275135456332
Cs 3.096174453880917 18.668871696833136 12.326529220054827
Cs 1.0683948846743885 9.436763101603958 17.42560408515482
Cs 0.8178670373453676 4.20039374727676 14.210552233872221
Cs 17.017775633385426 11.388093200885574 14.047237855428452
Cs 13.236014316358808 5.136106098658901 19.051461260050402
Cs 2.2677633922369127 14.176783701092525 14.865852579490179
Cs 0.9354927193990327 19.08254814419737 2.183594608235611
Cs 4.209642560716206 -0.16294732173137508 17.566750961298045
