26
Energy = -18.12319789 eV
Cs 10.793270854992455 16.010278727279626 14.13119655212863
Cs 14.379778830448808 12.281435126448226 13.830337055733018
Cs 15.10265047847412 15.651563784435487 9.438470120754621
Cs 14.103680089239482 -0.025633995912957043 14.763881977226715
Cs 10.71279891278547 19.04171554525807 19.319413497477555
Cs 19.25155808807084 12.491243435336795 11.59228251439816
Cs 13.090290285762197 14.000358557505356 18.643945260800997
Cs 17.527837652741987 16.581062606516245 14.38453978493277
Cs 17.98409981340514 0.3936231467895082 10.583382250329054
Cs 18.147762160832425 12.37500923287476 17.758461177926524
Cs 14.241091494516985 3.0332950887901555 18.946110453200323
Cs 1.254336624411003 16.640204450999057 9.566549150711989
Cs 15.802265797539942 17.91801153795264 20.05818200646953
Cs 2.5181288025275217 14.883626594694649 15.361233432078247
Cs 12.494098840535345 16.382223936238887 3.9149326780611937
Cs 18.53278702033421 2.8876411592873295 15.757687754140878
Cs 2.4410814566400507 19.911744088085833 13.760612975448579
Cs 16.64005573462494 13.25161339820136 3.155395581564891
Cs 13.766589920453411 1.1948089704655465 4.055475245234298
Cs 0.005849798460514572 18.743648551264958 18.266469273863606
Cs 2.9093751532043974 2.6404516285944992 19.000103447028145
Cs 18.418994006340608 2.1463004312397977 1.76316652420043
Cs 1.119277712256764 14.863995267636707 1.1360776868677835
Cs 17.936634864849132 18.02399263103278 5.2768344490404795
Cs 5.341449755945881 17.929798511541673 18.941120602687832
Cs 2.6496115152307715 -0.5248049899355078 3.2678496095087604
