29
Energy = -20.36168739 eV
Cs 10.268140602961124 17.351901738036286 17.901547376110084
Cs 15.53494998628923 15.436783133012176 20.608627197317606
Cs 11.921011764743096 18.777546183000645 12.60753466893979
Cs 11.290936127961523 1.7943187113520918 16.093014218307832
Cs 17.12015411154433 19.068483438787876 4.7986595680071735
Cs 13.609195924345158 14.206774043380756 15.210968398982093
Cs 13.221926093705587 -0.01829801283222962 0.27495962067545326
Cs 19.057465143419442 14.247458097564197 4.9608983970445815
Cs 18.664252095720748 13.618354509557042 15.96132776555842
Cs 15.51294087213254 19.01664435552891 16.5986394412553
Cs 16.721235172294556 16.723788432051453 11.401847175945065
Cs 19.312227003067562 11.148545480424922 0.14700535470188458
Cs -0.006590030275944952 16.58998475655773 0.16848292253084135
Cs 16.338159460348685 1.6603450663632662 12.737276519362057
Cs 20.518166479141264 18.64926144728574 15.552693417484058
Cs 16.324359715348482 3.4949882106522976 3.1037374637574944
Cs 15.811513139238425 4.137578636511768 17.781470298216373
Cs 1.1776900333611884 15.55931487465158 11.50599683617076
Cs 18.549098776773008 0.37568003495128416 20.493701286575828
Cs -0.27484058990433935 20.60509842879923 9.844467740232343
Cs 2.9824422474421604 12.833837264732557 2.594216904409881
Cs 2.976314716430547 14.144837466504523 17.530661990132096
Cs -0.03939745579513051 2.9894172235773198 16.08193586270019
Cs 2.1908039114107707 18.005913099334027 4.948705639788221
Cs 0.399851165648744 2.1702471356605293 4.794462679754531
Cs 5.81579580779249 16.84402788546893 0.539817229987308
Cs 20.707870636202315 5.562903044754901 0.51385100035241
Cs 5.323480624462091 18.928285174134405 15.963826340204944
Cs 2.9746092255351106 0.6314607953594427 -0.012491209648652756
