29
Energy = -19.99463891 eV
Cs 11.149485367924905 15.530670755674063 16.30490360862345
Cs 13.809544101818965 18.73145668164981 12.465331204993456
Cs 11.15302704419271 18.33806057636682 7.69976435191706
Cs 6.826495182515648 15.677790699590394 8.367928301490696
Cs 7.003998715283806 10.753730986705706 10.773750129957246
Cs 2.7984367340554637 7.610967676937264 9.179524638183809
Cs 5.739222541362348 14.594989140719695 14.195993252861335
Cs 2.5290564232095853 13.033600018342106 9.701764464219531
Cs 5.846891795830405 10.886506885085822 5.733687609926805
Cs 8.3862596507406 6.436405351290655 7.519078410079728
Cs 2.9225524433294434 9.840225183431896 14.32515362381743
Cs 11.15710998670515 11.687764581724357 6.65580302287664
Cs 11.159291022174378 13.972883697217142 11.54413393287659
Cs 8.50287893359551 18.73099002473961 12.471958988263228
Cs 16.583904062181656 14.598755821006199 14.19184056187234
Cs 11.170238116350937 8.350832761241595 11.678438524662743
Cs 15.324791041709672 10.734911948359033 10.779791630162682
Cs 15.67978633614017 5.606773193402161 13.009556484758662
Cs 8.52688278332878 10.370410476311843 16.06817232493823
Cs 6.634220602461184 5.717671766575697 13.004355922163395
Cs 13.792416280249473 10.47143636629296 16.06949459480664
Cs 11.171170639659994 5.301027628354883 15.983377750873748
Cs 11.157511054842937 3.156388687280738 11.015986002767837
Cs 19.38418367688465 9.82946993604017 14.322394529042393
Cs 13.943370899593992 6.382182010401399 7.464516455261267
Cs 19.40232577394115 7.593568267984254 9.17624534637342
Cs 16.46679255652099 10.88364729212629 5.734083471736761
Cs 19.793241719877113 13.024671492064464 9.70311509661345
Cs 15.49741515197939 15.664710731543996 8.37235812541841
