22
Energy = -14.38852533 eV
Cs 0.91490467156175 13.90400844921906 1.6588091223088022
Cs 1.4226365972454973 10.095117413676833 17.88382043425212
Cs 2.76557279741795 18.63530939168575 1.0426067287260008
Cs 16.700835388889292 14.781743910662176 3.52745725492882
Cs 17.607860732167246 13.041441686184054 18.979956798490083
Cs 1.5915818681710114 15.456073911460562 17.331699403352033
Cs 18.276686063547995 18.390746018783762 20.568568699135575
Cs 0.7966568545965361 2.760630277655999 0.39337598466894663
Cs 13.56483763747578 18.769275599515694 3.242692197299005
Cs 19.413636653241557 12.56226778260883 13.897562931970757
Cs 13.141600988536215 15.48005503434854 19.724426461350014
Cs 17.052062609047287 17.698219018496218 15.791156462619448
Cs 1.1881750932501403 5.2223960492109835 16.182839361857255
Cs 1.5477354341345166 20.54365504076718 16.609466498065196
Cs 16.351207935031606 2.38774826350673 2.160030368719096
Cs 14.152025673856064 13.157299995044657 14.92805485630245
Cs 0.2719743507497807 17.29489107152569 12.218028938087466
Cs 13.056143801680136 0.09185458320261997 19.12945949827808
Cs 11.28525043640336 17.57316750793539 15.251412200958855
Cs 17.484106581609616 2.338832436955652 17.548012317982987
Cs 14.07407400314117 0.7965065970605224 13.528582312465177
Cs 19.256785701888468 1.493126168110787 12.629705528924163
