28
Energy = -18.80105812 eV
Cs 16.516116663351614 3.8394142627809735 17.461158295585836
Cs 19.969520370663425 4.993262255177737 13.52636500358338
Cs 14.537559639007256 21.276626156479264 16.70613580014588
Cs 19.08145779075448 -0.1659738062324049 14.206109268104935
Cs 19.04922764395807 4.386917371578282 -0.11571162585302822
Cs 15.57867157229241 0.18548030444784105 21.604607368127812
Cs 17.982003541490485 17.171513691393997 15.567412136372981
Cs 21.46234576614107 1.9644395600346247 18.295680904685202
Cs 19.690377675752746 19.703557972380327 19.962864915112046
Cs 21.693195540646943 3.8579641153253696 4.664264784713139
Cs 14.77879710783415 17.165878076447505 19.972774563384117
Cs 19.8007591971674 21.66971771780672 2.38184392950167
Cs 1.9126039808405702 1.7238320294687413 13.485792450702492
Cs 1.867737922539514 2.943211521427884 0.4021522438649222
Cs 16.908237021402616 11.857559813845318 17.17724189410807
Cs 22.238328575725504 18.508940815086298 11.609547768393803
Cs 21.592258152403847 0.9417818528712266 9.067538803661163
Cs 4.339111460972616 1.6479223521837836 18.119575916404468
Cs 1.32341251788879 19.303694584764703 16.511433698646666
Cs 21.853845471096033 13.98077814513134 15.444557874132975
Cs 15.05042742506336 12.53067453408864 -0.015136726147190301
Cs 20.090461583905352 17.990437226664774 6.79133736184833
Cs 19.563671713788807 14.529814061713754 20.520157864043114
Cs 2.378035614407359 20.2664879583314 21.839211331481476
Cs 1.8601301709059255 20.950694140499607 4.86283023684286
Cs 16.573564526247676 17.35391247588166 2.448067810731214
Cs -0.40530932191136265 16.391627057790217 2.252690347782299
Cs 2.165113881565374 15.358002228742185 19.95216249941403
