22
Energy = -14.68690207 eV
Cs 5.036998494931708 15.764375930316888 19.707215757887454
Cs 4.24594733622884 20.514059798576156 17.60535456265058
Cs 1.9911883538882464 13.381356065507077 2.124625414816457
Cs 1.9868432142345174 19.196879755803316 1.2243011912448938
Cs 21.06617271711375 8.216287216857328 0.2684239735646623
Cs 1.4665042696980737 3.187555268304744 19.618047028510954
Cs 20.144137228443025 2.787466140431081 2.9068338651199164
Cs 0.779960018551939 12.805738017055639 18.117212738493617
Cs -0.354542750905634 18.028236935554617 17.84405466166311
Cs -0.714843100983757 17.33453212865976 5.131498331944539
Cs 16.702095903506443 11.19284979458109 18.24457233589765
Cs 20.54824759129243 1.5261823682664906 15.12556064469625
Cs 17.638277555134657 20.127674302280926 0.26664901715075795
Cs 17.215072920492617 3.547750825781728 19.130086460610638
Cs 19.079486051737028 7.147303803006762 16.02167953590108
Cs 17.594883826962473 15.198330686881386 14.986234843994021
Cs 18.557120680975054 14.952353206738268 0.6125008356662696
Cs 15.894762643215067 20.24852406001062 16.03222100021083
Cs 16.68147280722606 20.79181808721691 5.813998372171602
Cs 18.411100128751645 19.194636119916087 11.006048792527691
Cs 14.048844175408034 16.089430924229685 18.915105791148115
Cs 14.18717301621604 17.19801803787995 2.9205332740590397
