21
Energy = -14.14788352 eV
Cs 4.861904934974025 16.68152023289594 2.7829286084189238
Cs 6.018496238420446 18.443662600842032 18.340795489927714
Cs 1.022918574413336 14.989695520984878 19.74312027162776
Cs 5.696059566037738 0.11603186234469685 13.50917554176503
Cs 19.599039421119052 16.308780206103354 4.182374160889223
Cs 1.1447462795421228 -0.13510452779600735 1.0088104271972473
Cs 1.561705516316518 17.015184352381368 14.785822821576636
Cs 15.904986687877706 14.265090726689126 0.7797918440485746
Cs 17.82344170925049 13.625876038319523 15.81538649173537
Cs 0.11745554650137274 0.492845674487261 11.60451660945041
Cs 14.454335070849863 16.44020420312721 6.480982118152015
Cs 1.4063649625906207 1.9061525227052873 16.52373745357526
Cs 16.15605197694968 17.067425198904388 11.996180211921118
Cs 17.584917158956156 18.363935315243726 17.705970902953794
Cs 15.539339754486292 19.37072381856691 2.2773448462690897
Cs 16.169198314007083 1.7773077746206343 14.279992918458882
Cs 17.449434487481263 2.9271107865934742 19.454037563433193
Cs 12.989947353121979 15.65471630496131 16.924875764313615
Cs 10.683419723767644 16.806189509292246 1.4499781371933358
Cs 11.17495239036472 19.28795854285649 13.501111373831291
Cs 12.610315496752863 0.5037832698665012 18.342101655880686
