27
Energy = -18.62063753 eV
Cs 2.7742598607158504 2.9943226390869575 19.13824511479677
Cs 7.8455819436372884 15.837381807249653 2.340789554315379
Cs 5.384094592044749 -0.54661743608748 1.1638200401148249
Cs 1.3353142191121599 17.03961350521088 2.991109324335811
Cs 20.459937840579848 1.4380364500545713 2.3682950159475125
Cs 5.777644543953385 20.048435033384237 16.651081814669084
Cs 3.954821360516385 15.334617339412647 19.651987527140637
Cs 3.1448989747073726 5.120207656338156 14.53518723566867
Cs 15.07756007878284 2.302644512116988 1.3122975394988414
Cs 0.1391143858196381 19.288391117421394 19.141928401511247
Cs 17.16615886066998 18.221710082348025 2.648006269662642
Cs 18.608578031938862 12.967485632916981 2.73033856344557
Cs 18.46833589202559 3.166242414198683 18.609722462240388
Cs 16.788859871237403 9.451311699851123 19.77879228081982
Cs 19.294721528930086 14.436882410413217 18.7436239509321
Cs 15.724443645102244 18.845727014523103 18.62262406338557
Cs 19.027577206381025 5.909992741573763 14.182982914626997
Cs 2.025033448359113 16.55850783433042 14.836693993954263
Cs 15.842010569988732 1.311336825524169 14.44348107616866
Cs 11.536683769267869 19.376890562253568 1.4545717897887052
Cs 11.268871194603099 1.1280212469858997 17.96252024881631
Cs 13.870720655696982 14.303577673781504 0.5412056289959722
Cs 0.15915863440039496 0.6577312610604886 14.419891620411072
Cs 14.680894847386394 13.628094676198753 16.35527937805911
Cs 17.84005122514909 17.188100546977616 13.787326174951339
Cs 9.557863867285977 15.989785824622059 18.239099990705558
Cs 12.340846246195133 18.09560622274016 14.416507240428466
