23
Energy = -15.14108573 eV
Cs 1.5672586879915993 4.411718419393409 0.632394006079362
Cs 1.4484946319047634 4.043577714871494 16.28441997524684
Cs 17.98760913871881 2.8948241157000276 18.915303957138285
Cs 18.541627159374396 2.0848925304782573 3.510996099722902
Cs 1.950564481479408 -0.6221450963501636 1.7138090652703295
Cs 5.228417096027618 0.9374662642792467 18.40155211827078
Cs 13.319331340089995 1.9613805747280078 16.015754080652854
Cs 18.415953319230034 1.696068229649456 13.570137461558787
Cs 14.588013847439244 -0.01184630370240583 0.3768414707494699
Cs 0.2421214919032728 17.753602076153424 7.5332098068838595
Cs 0.3552705046004058 19.821674437226374 17.345863907066608
Cs 3.000021402999522 15.509343459921798 3.9091319026472706
Cs 10.307421308011286 19.151117927045785 18.52260811141513
Cs 5.463857120964158 16.691270913196345 19.7182486455482
Cs 18.002923943450018 17.725112682082983 3.1231118878442405
Cs 14.72582962115755 20.08630498799361 11.356205732062069
Cs 19.315387711495674 16.977115221392044 12.429387656984373
Cs 16.169601213480153 18.52977095696266 16.5847652056297
Cs 2.4793676576917 15.169794604414873 15.404006051696546
Cs 0.3823623609905894 15.783848816222378 -0.563834534733438
Cs 14.491427048683313 15.515647035589705 -0.3982918074428636
Cs 18.25838322680827 13.689642601960147 16.81361593240283
Cs 18.389515306485954 12.52143985576413 1.8123617109789507
