29
Energy = -20.22860589 eV
Cs 0.5316944972793337 10.811258550115094 20.366880570804167
Cs 18.825773724937445 13.833995280430598 1.4875387011868149
Cs 1.8115998160758187 16.090163790835767 0.16006932930513434
Cs 16.667575893123242 10.421441675546161 19.151291470186393
Cs 20.875374662699215 19.657350940621132 19.003529047970634
Cs 20.609982409743406 19.12264443169317 3.657205595502033
Cs 2.650052222338546 0.09164889389532463 1.0515531238502496
Cs 16.490856281825035 18.53132812805506 0.9065005005164669
Cs 20.59735194037809 10.702235487454695 15.34257194971415
Cs 14.112759700043124 14.885341905296928 19.8214616279497
Cs 2.7120518485562775 14.653300848822054 16.47992535420207
Cs 19.40999515510107 15.18248090856144 17.93605633472732
Cs 21.140929341403684 2.5762841456742285 4.6215897798802485
Cs 4.679131147067397 19.15728955532444 18.517056339946926
Cs 1.6332463522125844 5.331242904900099 0.29450992495934486
Cs 16.007242314473988 1.5099544402918885 4.048418862634821
Cs 16.015881486261712 14.082733122065246 14.513064846862395
Cs 21.15348875286605 14.919490602528889 12.226244264835204
Cs 2.179437371164868 2.275991805381903 17.78499781162628
Cs 1.4930305419074623 19.490923595533037 14.241043344206206
Cs 18.752829060091322 6.801807259272613 2.0296884409660736
Cs 18.7407846528565 1.7842629651333308 21.285901724980167
Cs 15.34542877656534 19.282678593462414 17.37914648408371
Cs 12.88202319190028 0.3048637838402276 21.449547372893367
Cs 19.391239013511424 6.041734605296225 18.243615604497467
Cs 19.473698615469925 1.5974855131110828 15.06705457512353
Cs 14.448614463838704 5.32983659886552 21.598822169817645
Cs 17.914958444397914 18.81939530574453 13.008938106058068
Cs 14.918949080559232 2.8504666113362607 17.09736332762337
