24
Energy = -16.85413269 eV
Cs 0.27508689858934215 15.104307596609114 4.47176424350568
Cs 16.346340427057758 3.4358170583743277 16.874786555890413
Cs 7.343017230917611 1.788408925005081 0.2469442402768048
Cs 18.21636255230057 4.702047187944769 2.7343699638384398
Cs 14.587239485234639 7.709939759936228 0.006238425551934746
Cs 2.6108530367676446 4.223445664633486 7.8814104736700035
Cs 5.3182140268703995 13.888952441279088 6.1205422350364485
Cs 5.439206783901309 6.40837397760118 16.477156574625376
Cs 12.936853405020107 1.910643443816391 2.723343365143946
Cs 6.082025897652208 11.14861751684249 1.5048071926131907
Cs 3.4065253468929835 0.7884732119154191 4.069669228124179
Cs 7.327670128687385 8.569555085953976 5.97198469800346
Cs 1.107043288187051 4.863432408423239 13.05866535149779
Cs 1.9918891397429928 17.779396666791737 8.88584193545824
Cs 4.07765497592191 16.061067024102645 0.7949516230407161
Cs 8.840046142496243 16.891520978583756 3.4001136673233874
Cs 9.657948142628639 6.39880506103318 1.1914228189192029
Cs 0.8086187523170192 8.29307003528377 17.95251149368699
Cs 2.2974599734805037 2.4295667457878958 17.833356699376303
Cs 8.103298231090486 3.3338146182787045 5.48481800868077
Cs 17.154228226024287 1.088473515275244 6.255338503073256
Cs 7.085739496206977 18.239495716693874 8.266872738719213
Cs 17.680381262551027 18.39107578285172 1.0761860812672492
Cs 4.221631603097816 5.979508954599911 2.577793304376847
