29
Energy = -19.58180769 eV
Cs 2.505179503213358 19.96758437522801 19.801766902944227
Cs 19.627183777626552 11.756589191610942 20.82585742784244
Cs 1.4489438773237935 3.435492428690742 4.455113897110938
Cs 0.2424067681968343 9.789653695459053 16.26697662904057
Cs 2.1175873043937883 20.34497769045867 2.932746984316385
Cs 0.6569095803999969 4.263708560151291 13.215674046842548
Cs 21.265004091712044 1.0724920112538399 8.458409590579995
Cs 16.390180317743603 15.451268807254587 18.0089403452922
Cs 16.249979539039504 2.352732102119646 21.376166453251876
Cs -0.8502502690357221 21.715303647915295 15.773414638350344
Cs -0.3885237384646153 15.867581364423081 1.0629244828225135
Cs 21.555749687793963 1.8530962222264267 -0.15203078876728696
Cs 13.62529293238888 19.678236105102204 20.216961130124265
Cs 7.402854865734864 5.6909204849700545 19.847061128164015
Cs 4.888621912261678 16.36001963178127 0.4828917155559974
Cs 14.195542305203704 21.14858623560576 3.02259782861729
Cs 19.047382098476334 19.71210700936499 20.24310013442943
Cs 19.191512569028927 20.151408933828655 3.5670657776440207
Cs 5.074135062987798 1.9639599033687005 0.6570618057192784
Cs 22.043804635948636 15.573338321721574 17.84552928523899
Cs 18.105295097922237 3.022265070163877 4.207274207955953
Cs 1.8562560313373542 6.738781946232898 -0.9508155050074978
Cs 4.603793941305256 7.295484181895762 15.877235194260678
Cs 19.961729671257462 4.920199562569081 17.73205302582226
Cs 3.051154661473418 2.7475673030616967 17.85371715365365
Cs 3.065480375271028 11.817414688085174 20.34456184637392
Cs 10.72366733425752 2.234890492935499 0.11817246043869052
Cs 17.309208011773464 10.442290123409563 16.40443403909203
Cs 16.393695790358258 16.24783849413461 1.062884896288421
