24
Energy = -15.81777509 eV
Cs 2.2306485278305366 17.605664937081077 5.049589736981972
Cs 4.90600745379697 18.00279907983656 20.504307536207154
Cs 1.0480589358068688 14.713959302869284 0.5157653585252507
Cs 6.95458665577183 18.435980728857206 14.970938367897471
Cs 2.6575795555127346 15.070846153513806 16.52584777321185
Cs 2.208647836338402 0.40403775230943156 1.9630400864015882
Cs 18.779128283225873 18.513594061532334 2.409962744819481
Cs 19.329775526048934 12.298949778593359 17.610767389882866
Cs 16.973183701401968 14.015204150334728 0.6064013331683562
Cs 19.20067137586232 15.390210130458305 13.57542252049786
Cs 1.85912381788034 19.18536100381178 13.2169927301235
Cs 20.481193981087852 18.672670613052713 18.369295460450378
Cs 13.988599887853292 0.09246953475536106 3.83749009038812
Cs 15.20965794149931 16.52305086856173 17.22942297137337
Cs 17.185334897415036 20.103087101448267 13.50542279116112
Cs 20.490937034184707 2.92783338279745 19.7130789812889
Cs 20.54891956884608 2.3934709298312837 14.803124256918057
Cs 12.860127204061529 16.753954553495817 1.7337092549615916
Cs 18.517633127619213 2.4924413873440927 3.176337014599408
Cs 13.768013381145812 16.43603761819727 11.906700357324143
Cs 15.81056985688709 -0.38728383002864064 19.975592098432713
Cs 10.403485623175685 19.498027545371272 19.471728763673397
Cs 15.491765471735008 3.169937505978116 16.41475207210878
Cs 11.926458281562422 20.517803636546486 14.575596709047506
