23
Energy = -15.25909521 eV
Cs 2.395508889960861 8.117327566861572 16.349205313346808
Cs 21.174067821102472 3.9349959931020315 15.72566929381599
Cs 0.17141984876595842 18.443859340055656 3.1531932027058702
Cs 18.44573625205261 0.40663344618329583 3.121447605122513
Cs 1.3410602701906815 12.696416545517312 18.261806776225157
Cs 15.989452031450258 20.392128101906277 20.71952828043612
Cs 4.238789576182743 21.328607810856038 1.90105110844537
Cs 18.17456393207197 21.467933028991762 15.970007034729306
Cs 2.746667915793176 17.470180705368218 20.126672187433385
Cs 1.7983341364033743 21.07666665119976 15.580939009062448
Cs 4.613608610434606 3.474271502817571 15.002514792214006
Cs 5.885470665414011 21.728597719771653 18.869713253668383
Cs 14.083960668451995 2.753717132630826 1.19025738092198
Cs 2.714117897032147 3.83035403997393 19.93699572525589
Cs 0.6539985418849574 3.3938596575555446 2.7372349817293653
Cs 15.868222265283048 16.710388096953935 16.94731032094831
Cs 0.5443337497259176 13.123107404280981 1.9067143551690962
Cs 21.454935609566945 -0.38713418750292916 20.394541639611138
Cs 21.630645343953695 8.214343943994477 21.470488261469807
Cs 18.354669951865855 3.6876950290370507 20.095778684887534
Cs 20.941778985079353 16.821540100379313 15.911842553426418
Cs 19.34198114587495 16.376450417568808 20.991317155896578
Cs 17.821892455802384 6.009352389207798 2.8965862590698017
