21
Energy = -14.29025218 eV
Cs 14.007732717517959 16.623281113021694 14.752145701301265
Cs 13.561780452136782 16.614921910666375 2.4335931382446447
Cs 10.071803112715177 15.653884342234216 18.263759591013844
Cs 12.794825935244951 0.6203835347360215 18.462688987836483
Cs 14.977958175992686 12.883731351318982 18.48679817023165
Cs 16.97478138533956 1.2291092174365532 15.251039558351849
Cs 16.13515717590227 5.13057449617902 19.126962113478886
Cs 17.609301032517134 17.98167977514684 10.648136526998789
Cs 17.39256744645612 17.833676562570197 19.286636870775332
Cs 15.254504625177109 1.5958260505610034 3.0135143925408716
Cs 1.1068275458845132 1.9952664876244568 12.124240096588629
Cs 19.11780832326426 14.999441698173941 15.255814702035403
Cs 18.986536097775605 18.363788287612024 5.190503197705576
Cs 2.854252663400533 16.98318783371045 12.008905674412512
Cs 0.2521092151458001 1.9845246825449396 1.12595598144997
Cs 18.097654892412358 13.59864472049541 2.729301419407676
Cs 0.4535784769323994 11.043766026056183 18.60009098892995
Cs 0.893223157941175 5.088557103418439 16.678574640873357
Cs 2.0076006350649287 19.48649797817136 16.727020852996436
Cs 2.2354190161419965 16.272948179310045 1.1196571987914035
Cs 4.529586885453245 14.510490630545842 16.764151037657896
