23
Energy = -15.7341701 eV
Cs 3.2562616945287646 1.0771803000625821 18.57284596296454
Cs 1.3407204492725717 18.96215887625781 14.894139037044054
Cs 0.011942032575684814 4.288932767877256 15.69554780316262
Cs 20.023977366433794 2.7683176634280646 0.5338227476535302
Cs 3.920251831882724 16.75510500212755 18.97294814774614
Cs 18.705891710364355 0.008583064845410278 11.536529241611595
Cs 2.0654782981034234 19.480447871239278 2.2167934733074124
Cs 15.830816719721604 5.492454804669387 19.60231067281659
Cs 19.48871055131612 17.767498138102617 19.64260982253241
Cs 15.728478160319215 4.075668048586594 14.135291513813705
Cs 18.454085995555513 19.87945788173569 4.8691767902536816
Cs 12.445458274798376 1.5802274217549779 17.683455100491436
Cs 0.9013264727468727 13.213192094700734 16.73121102377576
Cs 15.169264509511747 0.24552698048982796 1.1461532266746879
Cs 17.77598476155598 0.5023394616954797 17.113951584606763
Cs 0.03335380876152194 13.584610743075803 1.2682480506093936
Cs 13.90400809409356 19.738618372031876 13.477333953937357
Cs 17.784430862311094 16.24687689626995 14.641965073183798
Cs 15.968785368311272 15.679142137348098 2.2062273283613325
Cs 13.881555974181707 17.383773116230405 18.32781008545389
Cs 16.75447064670317 12.692067597036775 18.595014247431333
Cs 20.683313470049484 8.491631060018491 19.09673457210184
Cs 16.88726158900096 9.80042779808572 2.0643150891920072
