22
Energy = -15.17197841 eV
Cs 18.456148269749566 16.54805970104673 5.084624751076345
Cs 1.638998979213112 14.472960096280882 1.216259212164119
Cs 17.06437202942501 11.153735335459432 1.2275003251397725
Cs 1.5169036222028478 -0.2555241752349719 1.1539486053651933
Cs 14.336246604263092 16.376300601524385 1.3971000225932215
Cs 1.5990261269200667 10.970544936861762 16.98402263966403
Cs 16.29696229670145 1.6547515620382955 2.6079100478929766
Cs 17.346568404965545 14.613104709895829 17.24177088209635
Cs 2.2114588723084934 16.78283252451632 15.97193665039123
Cs 12.653179985502506 11.738141717022904 18.173478235005472
Cs 16.77157800323828 9.165424461170911 15.451998228400662
Cs 11.900865734908344 1.3089131929442614 -0.199073084015047
Cs 17.40109721947771 19.573785369986687 17.85380312730104
Cs 14.164321042520703 6.339259410160414 -0.26754493386880757
Cs 19.389533018768272 13.368478647576891 12.569236209719865
Cs 12.249042505269646 17.210025384720844 16.307330283175894
Cs 14.020113237695774 13.220125985135903 13.246816186468427
Cs 19.37922367531497 5.05884396065807 17.506975953120754
Cs 1.2458789545830187 17.764040275919612 10.071444688128778
Cs 16.657983841450577 18.13571549289577 12.931980051334568
Cs 14.466412681040657 2.883528310600632 15.167386678975529
Cs 1.0728935346748465 1.6538167155848602 13.951886289074055
