21
Energy = -13.89578213 eV
Cs 14.294856362909723 16.452454532051913 10.80428262340575
Cs 19.04830439020554 15.540341469621353 12.634746219388866
Cs 15.559505414213367 19.930112392344924 14.71634131503412
Cs 10.027340828463982 13.273350230738464 12.501377006112936
Cs 14.553064088754171 14.271506542657155 15.699482492217994
Cs 10.575391434045276 18.03197253656239 14.288289760442275
Cs 0.12956075660581287 20.3179956229394 12.97608267731356
Cs 19.40274126254304 12.0942375998323 16.46571725227333
Cs 3.0907751395058125 15.703886571746084 15.572085544253982
Cs 18.92454859718535 3.344687510829509 16.347074266092083
Cs 2.7114812987443884 0.6319891863266818 17.231840849014542
Cs 19.03441965145991 17.632124963152503 18.119945879403627
Cs 8.324471369846865 14.720503256510852 17.627746726376795
Cs 15.332067396732924 1.7951327513688689 19.657171500876366
Cs 1.6746258228639344 13.202540055028756 20.439370692979125
Cs 12.869537323593269 17.714405557437853 19.174505943484014
Cs 3.7378591743666987 17.881312634737853 0.3575300968412051
Cs 16.49773290195535 13.883397623358073 0.2547742930934666
Cs 20.201653658219968 1.0004478770172385 0.8915941094346406
Cs 15.82554306248896 18.786094746794095 2.8249415570957113
Cs 20.11347613436315 16.306103252807215 3.344055263933401
