26
Energy = -17.68150605 eV
Cs 17.513331919744708 4.374718398468684 17.09597344611156
Cs 19.721665810127845 4.145584518894652 0.1306886876208186
Cs 0.6918320377447283 2.9976404412698843 17.88551009970425
Cs 6.00163722591458 0.4138518414445441 18.046149892071046
Cs 20.101122144206208 -0.943787879741639 0.4060737841496916
Cs 15.320809186277968 0.8185100913653233 20.18444149096516
Cs 18.612369668521968 -0.6610481213349885 15.993028180489665
Cs 12.990003146284641 1.0884677508182543 15.490609567509024
Cs 2.8922039667416986 1.3656750852732797 0.799236746160151
Cs 7.9350658770118505 -1.3496295566925176 0.7860598967949612
Cs 1.3474426963945767 19.699666971305327 18.23486422343036
Cs 17.7449510435155 19.673258852565322 6.397193428357413
Cs 1.1243782480393403 19.708015628406468 5.424728666910976
Cs 15.20159228808311 20.792036526636927 10.961362577827115
Cs 9.098878014867275 19.1753938487099 14.851131992443044
Cs 6.5434568007036855 16.55334012242875 19.00498526073068
Cs 3.235920646829844 17.882286583332657 0.9668914222342879
Cs 20.883011567011767 19.23451633748804 10.90133097334516
Cs 15.042301012679706 19.14588482814305 2.042433405848797
Cs 20.105352845414135 16.132943732187975 2.4655777116548894
Cs 14.622804934746698 17.65658075804542 15.037305172008404
Cs 3.639031663993684 17.14840131266916 14.525321740979548
Cs 0.8336340239549344 14.506263539908735 19.417907271562807
Cs 11.746164462178042 18.45089771618217 19.429206214769465
Cs 20.253499213956154 15.86215551508031 14.912275037303237
Cs 17.645974652720067 16.976810254809315 19.45814820668252
