24
Energy = -16.20114899 eV
Cs 20.20343043910533 0.398567465418216 10.157089847027553
Cs 20.20885754409365 18.226486381556622 14.281389658816991
Cs 0.7963811732708418 2.2353302588842507 15.310724592561144
Cs 3.796223217541069 19.68675989920534 18.38188623195065
Cs 17.557921314533846 14.020967587415825 15.743208282347318
Cs 16.88611929566018 1.7248740223291013 15.048232332970333
Cs 1.1778741870179288 15.024381586126633 18.249331866228886
Cs 6.991199605274073 15.32616594163992 17.840358527665245
Cs 19.527047624759966 19.958953896489675 19.024394777727682
Cs 12.674095431023531 2.630039746133522 18.07712859374241
Cs 18.76184797454987 4.3601002837256955 19.26424759875949
Cs 14.759452229974718 18.735090072054486 17.448243965348766
Cs 5.166624608613955 16.638268497117277 1.5973422879363555
Cs 3.70804263343278 3.5713592374571608 19.42002216431005
Cs 9.778667461578983 19.551017869207648 20.19747156378768
Cs 17.18655983381728 14.410662032980325 20.72737095113793
Cs 0.38674632987860885 1.5688437897375587 1.9427958331828878
Cs 15.83897684474936 1.082018819644544 0.9303539508059969
Cs 12.124665468782876 14.528727349846632 18.747357372900524
Cs -0.3182976779876908 17.06851229146065 1.994036861645382
Cs 6.051855858270988 0.5433786419729897 2.236201622290756
Cs 13.884455406819825 17.585408382927085 2.100899697444691
Cs 17.984834861156283 20.21098691957296 5.386996298594106
Cs 2.381263391835794 19.56019641216318 5.672264833200109
