23
Energy = -15.65614993 eV
Cs 1.8892435872079967 0.3526255992824293 1.9811859097504299
Cs 18.094051584221727 17.571583718003627 3.0161630875169934
Cs 2.3174474501138635 15.795272780396642 0.511222974724709
Cs 17.56873430495932 2.51253889207467 1.545472697953299
Cs 0.6318608484426338 3.0536571672886508 17.726757458077856
Cs 5.143579044653519 19.77833339125218 18.63270610550004
Cs 18.99241191131468 19.21056303654168 18.735416724731447
Cs 13.401645722872525 20.124663142095066 0.13055052012023585
Cs 18.21523157806862 13.084422616023188 20.39204044056517
Cs 2.409640082513016 -0.4341938227308291 14.165950545568686
Cs 15.337015023748668 3.4467029608312094 17.42767147956008
Cs 13.599992846330192 15.029698734876154 1.9342110758465838
Cs 0.388761310376328 15.378538578417226 16.05222499484199
Cs -0.03216827117700562 16.426266968705765 11.054994841033851
Cs 15.234416251783493 16.356930672930883 17.462155380624694
Cs 17.68547074314903 0.24909183294203888 13.870070186392356
Cs 5.90742743191499 16.04704990244503 14.52012065163984
Cs 12.175727308199672 19.89118789647117 15.163640549257089
Cs 9.510592386518752 16.413032478846002 19.16070238688096
Cs 16.938985480853898 12.07622395379048 14.899153346816083
Cs 12.9631033729809 11.653636444668296 18.59887604641561
Cs 15.510760723700166 16.423332470759085 12.183306958871626
Cs 11.018398412391102 14.491145546230856 14.381775506019935
