25
Energy = -16.70513898 eV
Cs 16.344398986087075 12.876665668449611 8.68448603968461
Cs 19.602609242342048 17.196260822037694 9.202475804928762
Cs 13.334288359976535 16.38827655572038 10.821125313524306
Cs 9.446085818070747 13.772803117195403 13.357008662233318
Cs 20.269008221453962 11.613343505361078 12.440132992410472
Cs 15.975082628226383 20.389472103852622 14.020883157167502
Cs 14.39118054897451 11.223523518810236 13.313179036790618
Cs 13.613310419502648 3.3231507776118283 15.99787358216301
Cs 2.5576683693894884 15.839185019985695 12.423239188699517
Cs 18.128138472341586 15.74002739601819 13.83824079701613
Cs 10.409483904831207 19.207725891824385 14.26995020725622
Cs 0.11669919451579486 19.725042647881367 15.36293467975381
Cs 1.321075694312083 14.92808903510097 17.599669851138085
Cs 13.61805790063763 15.47765424671955 16.404519682110344
Cs 18.076701186066888 11.650320315742901 17.475090730341076
Cs 8.79857736186517 16.27012054819406 18.55884226893462
Cs 17.717576507125234 17.06401669652359 18.81853540059778
Cs 18.266471575430757 1.0570163602550098 18.80935225539267
Cs 11.63185980851108 11.229820894743703 18.156303481270665
Cs 13.07322886870389 20.279337428439554 18.957858972397958
Cs 1.0547611267933252 19.20060074833854 20.800930258725057
Cs 20.280467533880515 14.737618343272947 1.4061724152531714
Cs 12.945975016524626 16.17182523780319 0.6714575854655495
Cs 15.609347804667534 12.035983520973005 0.6534224593650685
Cs 17.47661677904791 19.339012394287508 2.0149865066582815
