27
Energy = -18.88070513 eV
Cs 1.7658649174329348 16.99179233344554 10.713838153944069
Cs 17.040869239450082 19.466245414871995 11.338429307388802
Cs 18.05722167590084 14.730067530284547 13.900020297226936
Cs 1.4323430016267285 1.2854167512313817 12.270439471595854
Cs 4.020409172594386 14.584642735765557 14.967149903588906
Cs 11.559728370552694 16.387584211265825 14.842360062117665
Cs 6.0589167742379635 19.322881992738264 14.054082074635035
Cs 0.3774747643495508 13.309899416746246 18.562430890734802
Cs 12.605783892607894 0.8883425719923388 13.806121612967644
Cs 0.1437762658776561 18.41879943166921 16.251665462842343
Cs 15.429941195323998 13.67700337319385 18.44182761572201
Cs 18.144741318671475 2.5731116541598786 15.465214340463396
Cs 10.55968928165073 16.122486888574752 19.98682914376414
Cs 9.022898933188657 0.6591103097752218 18.064895383223384
Cs 15.330654759519568 19.02893259966513 17.650967843972758
Cs 18.06741407590443 12.502191918922072 2.422845994766516
Cs 3.106423884145008 1.561763399423988 18.176280562406752
Cs 4.904177414168435 17.273043398662534 19.56631433334217
Cs 2.4349938422911936 14.950068854354017 2.9666363344107336
Cs 13.78669479075016 3.617175527870868 18.429590071334015
Cs 18.80229873690415 17.52581133208415 0.6245967252339673
Cs 14.553217850982328 16.2629424530678 3.349638465402278
Cs 18.424208993784028 2.203520978488413 0.24729576089097657
Cs 12.785396577526836 0.11775729955251306 1.4444094018949527
Cs 1.6745552201323621 20.250319316786506 3.0987581394784716
Cs 19.195881288836073 16.121376892746355 6.467397734457558
Cs 17.015707642039665 0.25569302801780963 5.26499724461742
