21
Energy = -14.11692657 eV
Cs 0.8686476475050207 0.9892687103749391 12.168821947550946
Cs 3.6331471199369494 17.562313188582987 15.460472962985401
Cs 2.618999649250294 2.2523925725328118 17.344626627694986
Cs 15.708688813652126 0.8461715741812388 12.293193757707533
Cs 18.061748500575625 4.504775261031719 15.573976045780258
Cs 18.694396829211968 15.563175740144677 13.028201997673497
Cs 18.667060564192113 19.216144860774648 16.354140535844948
Cs 18.57835455256121 9.918819207710053 14.723123106530846
Cs 14.500043864811369 12.53378990536107 12.3991679882139
Cs 0.7299166858131007 13.811334134763309 17.5989987762814
Cs 2.11579976269017 17.96347777214546 0.7513391028737489
Cs 13.345120685202051 16.95011221672684 14.81681143451977
Cs 16.639356579366595 17.127099432976575 19.948185589232622
Cs 15.280132843855968 12.915469801222915 17.853897228928737
Cs 13.82635348784623 1.3754880077325553 17.580121208394704
Cs 18.457476049716387 1.982585175236407 0.7599541607705328
Cs 19.326748916825423 13.675842776882819 2.634447682055052
Cs 11.202658022718122 16.947381181422973 19.598701773043395
Cs 18.44981420586881 18.456892109256426 5.028883591140262
Cs 14.307853781399153 14.801125668732976 3.7715404161531363
Cs 13.80750952251834 0.12074041344549645 2.9305021564380063
