29
Energy = -20.69962338 eV
Cs -0.8799705526190247 11.24742712147167 18.2321762908255
Cs 18.053043341726394 12.958890084400656 2.6779662629420757
Cs 2.508339434325412 13.887875282876458 1.1741826970294547
Cs 15.131554932672724 14.88939166619405 18.997095345452255
Cs 6.618755480705709 14.2983686627636 17.952492474470844
Cs 17.462834807408722 13.69650480763206 14.032662038380721
Cs 19.904068955915744 15.991652459733729 6.5971930023340795
Cs 14.420624277985292 16.554512252967683 3.916135344133953
Cs -0.08936416337588794 16.791266134656876 17.799416780375257
Cs 2.675974840477027 13.622917271078427 14.61006818515254
Cs 10.300788422807951 16.370948334878868 14.663150598357495
Cs 5.016080729573777 18.448652663867435 0.9122486758307555
Cs 10.267485767638021 17.28311535859966 -0.07875009652697543
Cs 4.630975163703526 18.701679800741925 15.608049433506023
Cs 19.491552693286163 18.719732963505226 2.0131397011437877
Cs 20.21998726867952 17.699600811877904 11.976787465217994
Cs 15.370698648538202 16.88890381914933 9.644476181454149
Cs 15.236832184456837 18.49211168514488 15.118323207683384
Cs 2.2102995292753618 1.828211760038453 12.234944428941315
Cs 9.432010952275713 0.980592912416861 16.801038740045165
Cs 14.55878318903053 0.22236718969824668 -0.11951627918000067
Cs 19.12791671670755 1.512157942978059 16.408187811451803
Cs 2.9610852092255167 2.1481267746637367 19.326956656147253
Cs 15.802692141935317 0.7880184868776512 5.80756881963104
Cs 0.5702127773433353 0.8909398607481894 6.659179779791915
Cs 12.086231742603587 0.30598652843657903 11.508643066875706
Cs 17.314255442322565 1.8566031525769482 11.128779191620088
Cs 18.571318015346616 3.5249887042374097 1.1605303050078395
Cs 14.135033840144969 3.2928310604392914 15.77687854591845
