21
Energy = -13.94471901 eV
Cs 18.451834995519658 13.795452173810409 10.769201589097543
Cs 14.692039897178606 18.31485729744597 9.890436214034839
Cs 0.37357263067428714 18.445209577005333 10.50274803568711
Cs 13.572238534817412 13.426340142594139 12.674059522735858
Cs 17.887394981031346 2.298052473641072 12.39179940575977
Cs 10.907952905077426 17.442853252296768 14.4387159971588
Cs 1.386130094286879 15.699947330549735 15.066841599217346
Cs 17.535944940487404 11.900812521305385 15.803117546073208
Cs 13.191678801748836 1.9876326235390458 14.439872235404325
Cs 16.40985205185474 17.526880264175407 14.680217237203324
Cs 12.673365120277301 19.43706614755955 19.056889052526763
Cs 17.854642137175787 16.695434342258775 19.277126170422253
Cs 17.431136818884607 1.8825312996643815 17.81673384985266
Cs 12.893753993785822 14.040684046708071 18.03509635686521
Cs 1.2599197539839209 12.310387044038809 19.41252554407139
Cs 3.5187099244676117 16.808314888903052 -0.14240043362966093
Cs 0.8776314482888226 0.6369110034338776 1.5671316137696782
Cs 13.9256025333871 16.051737538177196 2.907607602500742
Cs 16.03865532126388 0.6235007728801547 3.0298415916184025
Cs 16.550830699656636 11.81173282705316 1.1092754750673315
Cs 19.463090692668242 15.759640709476043 4.102825450275848
