29
Energy = -20.27855519 eV
Cs 4.8329612267851525 19.478534586331953 3.004048088283937
Cs 2.976927458654964 2.700497864627954 0.3766564599850121
Cs 4.708797207610543 19.474438631307894 17.93845146570215
Cs 4.151493399867469 2.827511020846804 14.780403378378043
Cs 4.168693324311744 15.064825541927158 0.3851778553637572
Cs 0.2546785844313961 0.886076343151847 5.194860772540243
Cs 0.4197392272320345 16.227799223996985 4.833330705153171
Cs 17.791484292832425 2.5930786122108205 0.7496757516457763
Cs 1.6936996770670423 19.33759867715275 12.57191456431058
Cs 20.659804502621764 18.777606883818965 0.1941276468184342
Cs 1.1525709150163803 15.602495108316623 16.6411069372412
Cs 18.849131462324422 2.3159386081024893 11.941596919053431
Cs 20.521332691064803 1.5496330515170949 17.037876393744195
Cs 19.60397877810892 13.286935457180213 0.2680342960359479
Cs 17.62319394611736 18.54788519476656 15.146714903025048
Cs 15.990385918641916 19.52397367780449 3.8829418651785654
Cs 17.13228937885384 13.003964102508759 16.263892638764595
Cs 14.305948918316819 11.843185095698026 0.1379999500433266
Cs 19.594194684389446 14.693677026575054 11.561915243205663
Cs 15.722439094736869 17.047308920500598 19.738312900291394
Cs 16.12515980652789 14.42975305409924 4.429438826179623
Cs 15.208197365016767 2.4347205905752096 16.772244936566032
Cs 12.580083577630859 0.5275286851548798 0.2327024648458671
Cs 17.64295956173573 18.70374858711522 8.836297788699214
Cs 11.558186841158081 13.90267340618322 17.01941619671729
Cs 13.925771258565156 0.2624500897186383 11.918265378401864
Cs 11.011024107840141 16.120619066938605 1.2875619058005139
Cs 14.17201652742248 15.59148284215632 12.471398524451864
Cs 11.691521816680947 18.991047149912497 16.257628966011094
