34
Energy = -24.25591694 eV
Cs 11.827543892578813 16.790243348025243 12.124285477484378
Cs 10.44965048275058 2.1630678664322005 7.732629624224079
Cs 4.276807400980514 14.984829656029062 6.970953102921137
Cs 2.5582381186803804 9.912895506050962 7.357862986113309
Cs 18.732748619779283 9.374106439660949 9.233515196917173
Cs 4.4346442621094635 7.909658422222799 12.030402236297755
Cs 14.717378136677999 5.217828963505635 8.395694063500253
Cs 8.162197943514531 12.851337410890668 9.902605829970936
Cs 9.624445660959294 10.037977743772778 19.690439836446995
Cs 7.509985691860656 10.581664244420434 4.8172940435546945
Cs 13.41100432481589 10.968688988576291 8.313977688333916
Cs 12.187042478410621 3.2076493422531365 13.12024734084737
Cs 6.167050031774261 5.750871415301156 7.224593832212645
Cs 8.692201336487893 15.657071949984903 3.909458539182366
Cs 12.720069549595477 12.313786184958515 2.922193205712434
Cs 16.99943290201051 14.809305153043784 10.579372848777476
Cs 14.990573603183766 11.640263609850097 19.131717183593782
Cs 16.007416553469763 6.9319609731909795 13.102005378189137
Cs 2.5434553894942717 13.237157269912519 11.910307928136737
Cs 18.34992472872306 11.383072818990469 14.442691517879638
Cs 12.98330719776984 16.457859811530206 6.9587460274030635
Cs 8.29334125666349 6.301674325200835 15.646630669983685
Cs 9.940955846798538 7.346752726026441 10.570859237905154
Cs 16.31772233092363 8.300486740596527 4.272567074987497
Cs 6.963393711354262 2.5350932194736298 11.774702733440268
Cs 6.68791670048986 16.860278475912526 13.49026184100288
Cs 8.022810426148748 18.728520733595992 8.555733522033796
Cs 10.558673482243789 14.976089809110254 17.41233190979686
Cs 11.12926054358583 6.831368018882429 4.653507570178305
Cs 6.835413570431008 11.63290799457799 15.235119413591525
Cs 13.251654410483054 6.818701128366276 17.53473483793965
Cs 17.551295475230113 13.375449703090663 5.5083057923059044
Cs 12.447008705181265 11.117106215148254 14.064788456724992
Cs 15.535454303483975 15.775720686663076 15.65782571229907
