37
Energy = -26.25806723 eV
Cs 19.10297861683383 5.842212856373893 19.039060915942883
Cs 14.091002288034327 5.414776069300832 20.45473847928439
Cs 20.22351634733527 3.3506415543610406 1.9092630131653716
Cs -0.14903351642307705 5.417435740195236 14.122013273244514
Cs 2.173639484792917 3.1148632310759004 19.644506218526672
Cs 15.862466674469626 3.262615503959238 15.319822975789664
Cs 15.193991091864035 2.8597430659350276 3.6512575769224287
Cs 3.720411049661462 1.5927323451970636 14.57363712519517
Cs 11.661479493343187 0.9508715226593212 17.348269692336853
Cs 16.278670019303345 0.8005175006482692 20.598033608871045
Cs 20.203649240757358 0.9363209967010517 16.33914590281454
Cs 10.970871796272423 1.2437866133535904 0.8138476536001339
Cs 17.225170459751784 20.304417421605226 11.371712780591254
Cs 4.207957911333702 19.672115466683337 18.170713512936842
Cs 18.95855983298861 20.753247327290087 5.289910694413778
Cs 21.363949604930152 20.196031089394594 21.00970982138559
Cs 0.38292858546580927 0.299536806043846 10.68247972654509
Cs 2.4816591655735123 21.284543845082705 3.3422220455897493
Cs 15.875458208457726 18.982277750945922 16.66284818827259
Cs -0.3544841224648257 18.10679077012993 14.837474383442185
Cs 20.466823995499485 15.56168013568876 19.35839663922515
Cs 11.904500519276944 18.1336189711493 20.510555485598143
Cs 4.319381797048759 16.539278038802316 0.6764056310461765
Cs 13.317683584346701 19.516026212062776 4.137896834524834
Cs 21.012011504838302 16.95918577339076 9.361237860675901
Cs 16.89043760613202 17.650132706144642 0.8392153908054614
Cs 4.160685248346572 17.911063280008044 12.856444448842788
Cs -0.007616703535346427 16.11803454979663 3.5130554085915335
Cs 3.531828652018404 14.376133951213028 17.47838038616901
Cs 17.564482164710185 14.704581995109487 13.607227657930627
Cs 16.8195828736971 15.738457688906736 5.9878311573241465
Cs 15.288953144527945 13.874286077630963 18.644558144192448
Cs 1.0482713290999033 13.148821870791902 13.021956055997085
Cs 13.16949118315622 13.977148839608091 2.041170656556822
Cs 20.07699162412844 10.849552401776238 17.305331070296333
Cs 1.4917117237850444 11.784617506294055 0.2609288756491915
Cs 18.100885720763706 12.088831827252111 1.4772711227089659
