30
Energy = -21.25721274 eV
Cs 5.44538869219353 15.813012211779077 15.655423223681204
Cs 1.6899526084527186 19.233294963321327 12.948600857069307
Cs 17.61462417514718 1.6816617598519692 10.795235129880254
Cs 4.172492486161502 1.03308130651768 17.100245061453087
Cs 0.25550790905001125 13.994771003985688 14.227223895878321
Cs 0.8030613363557462 4.0415070143900165 13.847531207466218
Cs 5.566373894338427 17.629278765798993 -0.09914851861386093
Cs 16.73555895107244 17.090330211148814 11.934543408046626
Cs 15.951980895171891 11.529065934585251 13.603605578970813
Cs 1.941449702497954 12.971711832052794 19.43205689686858
Cs 16.326901480471342 5.726407476755584 14.652369507454845
Cs 0.788782882216824 17.739040029897538 18.12785684749128
Cs 13.443600811117772 -0.16576819730268785 14.842831000267973
Cs 19.43241882074652 9.476059786277297 17.183248688506627
Cs 18.290896789364954 0.4169403460636417 16.062731199071596
Cs 17.49347598530613 12.043786913143768 1.2660279872721156
Cs 20.20556557648627 4.525217802712498 18.927101969625998
Cs 11.380063328093463 15.533346055641047 16.20502200532208
Cs 16.80227751370045 15.150962495678282 17.503952542817565
Cs 14.007294780250655 10.22725459937334 18.393155901358327
Cs 1.2979051536060318 0.536247168739152 1.1884069908442303
Cs 16.930448961180144 19.31534445791673 0.2614016600842384
Cs -0.2636584348353421 16.20648306989508 2.7182297045276815
Cs 14.494512557956856 3.4901161991731873 19.072757497688045
Cs 10.586412169646788 20.209966194226038 19.193599278946355
Cs 15.804555230486587 15.907874654201159 5.309200322644645
Cs 12.938688433034338 15.423763347959166 0.7807327935719099
Cs 17.590214327700796 3.751608087821849 2.7101537247102017
Cs 18.774242927314695 20.437599443824077 5.821749110399476
Cs 13.198630109316333 -0.1434636688154027 3.350445336202736
