35
Energy = -25.37637877 eV
Cs 12.819094951263404 0.5189958557210386 20.56572393504162
Cs 0.38509040003811484 6.567007113055342 -0.11970098377310978
Cs 19.38130417812355 4.188494971858306 4.425272738088971
Cs 3.951216515673312 18.73771938609858 14.42624833735219
Cs 15.842789658275159 10.202682295496299 16.524470644510863
Cs 9.838788178252525 16.88659185404116 20.823493667188973
Cs 12.997912510527586 12.709531524793018 -0.5317773636782488
Cs 19.00232026656717 20.300805988997656 15.469337632467186
Cs 15.072832026526834 16.89575031706889 2.7454497692789737
Cs 2.3563462973643077 1.8632441399158022 17.830800992487706
Cs 15.847804912245037 6.427672359974684 -0.5292190485704311
Cs 18.214359384924254 1.7195272767344048 20.552367908948128
Cs 0.14327675806601933 15.589931320626832 17.1714491074742
Cs 15.17481551654438 17.31080579632214 18.09702230054207
Cs 14.408413994048479 18.872114357706113 12.469860587853926
Cs 5.9174281220284355 14.166482376494743 16.787335139771244
Cs 0.39948021656955723 10.237836893115784 16.54190179965404
Cs 14.530848095619383 2.3462887057444046 15.735328099971989
Cs 19.781956749057205 14.316096565080482 4.833765347705656
Cs 2.6151448808035487 13.114374857816316 0.42190429817297276
Cs 18.228939785552512 12.08756676673413 0.0023597926058585134
Cs 11.434754549726716 14.666021208930195 15.358346861796338
Cs 2.3475029666384324 1.2172288520992307 2.230343396188738
Cs 1.5167634987124352 2.0913619323161736 12.417906492751191
Cs 19.643533952072488 19.813713265459093 5.647275619980338
Cs 2.0406137898289973 13.771001013610512 12.640269262908433
Cs 20.03645094450046 17.843169036381244 0.6632107587420625
Cs 17.057466823796677 14.418064080819754 13.655907321727618
Cs 15.032540605185465 1.192136483926339 4.318934565942868
Cs 4.587845454733439 18.355722063004915 19.921253888467096
Cs 20.183764868463438 17.93828153609133 10.873521038615943
Cs 17.423452074345803 1.9279237963744473 10.484524613162765
Cs 9.937511046473697 19.772151104967243 16.132991459458196
Cs 3.289301871662438 17.037001483819992 4.076966821224608
Cs 19.242266346014873 5.124318984281688 15.970872608115933
