36
Energy = -25.69600581 eV
Cs 18.88299842791879 12.751925651248381 14.66545658141823
Cs 16.141375418977784 17.39840066106647 16.572241718683205
Cs 18.34091619349041 18.49043574222689 20.775453829723443
Cs 1.2510251424779177 21.62300024054368 11.623160391489835
Cs 12.599740789097355 20.251474775303 19.998201573870787
Cs 1.766066272226175 20.801996945501674 20.245017247807787
Cs 18.625249066192612 13.011930056865456 20.232041546045696
Cs 19.989979868739884 3.8226897934595234 13.650079787755274
Cs 15.637893411241771 1.7606509201592637 16.81431131318386
Cs 5.4738666386194055 18.512122790488707 1.7886639797006703
Cs 18.07431677625775 18.60777797580313 7.545550029736931
Cs 20.925080630368747 3.9753498894540065 2.473674816966876
Cs 1.0759479495835136 15.742594451522349 0.8146023413124748
Cs 14.787423184668919 16.032682426565195 12.066256966593805
Cs 20.26031809222447 3.548992489335782 19.128796358299255
Cs 20.39713467303074 20.957034909910906 16.145406712737337
Cs 2.8785660404350035 2.7224250097961376 15.875003299125291
Cs 16.98288836874387 21.4645513140372 11.87271622515279
Cs 1.277961263946356 18.17534417343943 6.561533319801046
Cs 14.359410221916955 12.322709376393183 16.962896097896127
Cs 20.3771007366615 20.520288744617417 2.910431264060341
Cs 4.250068009592502 19.40661210115407 15.072175811646753
Cs 18.217986393457405 15.213010372668041 3.2788764235391463
Cs 20.529327911294477 17.12597532254706 12.031844775808096
Cs 5.339126975552516 16.16001597467786 19.05788677801661
Cs 3.2826868229854664 0.9547435251147864 3.4337764334440193
Cs 16.55966305264063 1.50414870917393 5.874240670181676
Cs 6.838794175747871 0.005418120454662734 19.153516723316837
Cs 3.2864077128025793 4.084504073394156 20.956173284989017
Cs -0.5898061400903024 1.3802069913173112 7.40288860504073
Cs 16.431855251840815 1.6599046667847293 0.3884491692378264
Cs 13.830881200462889 15.084516237922216 21.490909559839864
Cs 14.764293442513075 19.146613962359222 3.1249428011687614
Cs 10.537821140511033 16.04398325408791 17.119183641602
Cs 0.26186472196714533 16.008279128881608 17.227054922816297
Cs 11.922548217696866 20.399014972286743 14.51826938531301
