30
Energy = -21.27105013 eV
Cs 11.14130139659404 13.841939911819232 16.881680223085375
Cs 12.458237893184087 14.517799012804382 1.2035573964267523
Cs 11.147279698490259 18.718373907944695 19.473330954578373
Cs 15.581782321134396 19.09017648962064 2.2078771470925305
Cs 14.83064135876561 10.17906724981498 19.912240087305765
Cs 18.718513018275825 1.1464589082001788 5.3759424815372245
Cs 15.1942676403688 4.069698696339807 1.0198714285523647
Cs 20.53892133588758 17.675990369552203 0.01280804586112732
Cs 14.050709452129897 17.157626117450743 13.582731301316858
Cs 0.7924354832996621 17.2495662106124 5.10391026435745
Cs 15.591392239401717 12.016133986213422 14.403750047892173
Cs 17.670157297080163 13.598720245770863 2.511298469633838
Cs 15.99367302174777 15.690945940069675 18.456624869851257
Cs 19.61275729462683 7.216856550565159 1.4206843288646007
Cs 15.19714193603859 0.5118193659728324 17.112827013570314
Cs 17.24374698259105 6.281982602572038 17.12131175580656
Cs 16.90047480169364 15.959391760990433 9.000337575338234
Cs 1.957017944867989 13.06858488880279 1.1747595977712697
Cs 19.32751479275983 1.7204990172886918 20.155210834548573
Cs 2.494240546603771 1.4136669975750709 2.474301988847003
Cs 19.781173717996953 11.482920293453079 17.917066675516406
Cs 5.11264756387112 18.02119075568221 0.7819223349544672
Cs 1.6991281256570083 5.500560281748864 18.45283380825405
Cs 16.50542797170578 0.2469361067784912 10.862109188578515
Cs 0.5242477944617356 18.848688170470655 10.433668358242596
Cs 19.255445806191616 18.209666719738557 15.291645315997876
Cs 20.392782688748927 13.882277571777795 12.669772583047987
Cs 2.7547582890075444 15.441307477691156 17.15770982629971
Cs 2.8772463336267795 -0.004579156839031611 17.914489821540336
Cs 20.028230031285783 2.4909635571269426 14.512369133072756
