39
Energy = -28.09721306 eV
Cs 18.849598044373895 0.5394974564523519 4.847608904843031
Cs 17.922546469356266 16.29963123972126 4.990059209858329
Cs 18.613641886925375 18.24415391606099 0.48980242985714223
Cs 1.681427345088276 18.995126578643593 3.5247738039099117
Cs 0.8009776684697544 14.155475487104766 1.732687666276849
Cs 1.755515070255043 2.95527154513633 3.2260987697754016
Cs 5.777699578025192 17.088956216618513 -0.04381842405213884
Cs 17.514330443887417 11.45446584166755 1.4751433766254263
Cs 6.470135106613917 0.2634355918290808 1.7379150853918603
Cs 19.00621677853057 6.299400846630399 3.511540768185492
Cs 13.882954271466138 20.204747060727055 3.096712663257253
Cs 13.919239126581319 15.327125972782273 0.8163870313526576
Cs 14.42386357710688 3.7680578035907306 3.885460112753006
Cs 5.256709393811512 4.579899533823523 20.477185201402985
Cs 17.563796317358904 1.9353720450668013 21.363503115851426
Cs 14.814302986770093 11.187083675567932 18.206286235426912
Cs 13.272702664828367 19.911608168434228 19.44373744417123
Cs 1.08780571495851 16.954837079188987 18.769551330746637
Cs 20.61721360719409 11.315599998338989 18.988273367261208
Cs 18.599146042678022 11.41867119253432 14.273853515873036
Cs 17.254860571640375 15.753099856869314 17.78534480019153
Cs 1.4798513844145398 14.286291168701869 14.556707488729959
Cs 11.308616760101598 15.373280322453459 17.662705163872786
Cs 11.030831231187072 2.970096200723711 21.158922367707362
Cs 6.061382860166848 16.57185825305192 16.188381770147423
Cs 4.305353971553626 12.2843193144232 19.13636919621549
Cs 6.367062292263695 21.436232713953178 17.928547131379965
Cs 1.5224090296223145 0.14262861335387905 20.47044416045855
Cs 15.495146337591589 6.705267209224892 20.76256872013268
Cs 14.407962235618564 14.43313170082554 13.35648997578253
Cs 18.812336607125335 20.830956279962095 17.062419453060002
Cs 21.418765349779864 5.800274667630475 20.470222076443054
Cs 1.946947849480468 19.895190961453313 14.288427399367846
Cs 14.274759408751363 19.575892797236694 14.15383861223806
Cs 19.003029003065066 17.13557181887143 12.668339234587801
Cs 1.4076548030123355 3.189965952489088 16.078454815726055
Cs 18.343069093345914 6.072361334358909 15.907194920771374
Cs 14.301611283013926 2.8239184241499204 16.698182071631336
Cs 18.599184240873665 1.498449122859814 12.547413553209369
