30
Energy = -20.44021077 eV
Cs 14.388825165181748 20.174926852582697 9.790019209623264
Cs 14.797335405272364 11.352184163885958 10.004666610992468
Cs 19.393117610371686 21.387451088456142 9.925659009755494
Cs 17.9105886734857 15.853234120704816 11.233371925350513
Cs 0.2667348745450459 18.2212714287941 12.955246084757398
Cs 12.399072606948982 15.574337567940011 11.598544469872648
Cs 21.128908959887422 1.4560856994869396 14.403576281309286
Cs 15.833446697605913 2.099789146722509 13.073890313809416
Cs 12.040333464709994 19.911985276128238 14.780289977664541
Cs 17.845033869311038 10.827076565446731 14.013161403652857
Cs 17.434020549690675 19.785414709549208 15.043223153371791
Cs 12.139612588618151 10.689639450898891 14.545544775409576
Cs 15.588764593121295 8.722999417572444 18.375443418203933
Cs 19.83153370248157 15.183373953062256 16.632803289813303
Cs 9.253067241546088 15.163677992636108 15.729003804900454
Cs 0.4178396756466755 19.90111384258444 18.222046404037844
Cs 2.7695805928944086 14.80618922076399 16.887113233097097
Cs 14.76341527759709 14.915509465252383 16.423536124266764
Cs 19.13602876054255 1.451540224537744 19.438890674922977
Cs 20.984957753925073 10.431805005965167 18.358952557958297
Cs 17.30986194175375 18.195060919357772 20.085400978273064
Cs 14.124240392620187 0.778201095893226 18.468436606964648
Cs -0.10087352701894 15.689320054032077 21.522397516770006
Cs 17.321818816842534 12.79631109527228 21.516370978862092
Cs 11.735703699541016 18.093406706624695 19.659816764753383
Cs 12.017327497069665 12.288974897791615 19.94611150890641
Cs 21.256460227583737 20.696551795580778 1.1947719356426878
Cs 13.6147693161008 15.849651636636013 1.5958959776395363
Cs 15.728447835164754 21.261547940440124 1.4597198589823905
Cs 18.748703881729543 16.520046810170264 3.1947732952068923
