36
Energy = -24.82527415 eV
Cs 0.7023512576712446 4.060130671780179 13.022052317775398
Cs 2.710464484656746 22.24166636869324 -1.0189556857101914
Cs 2.8744747645504813 19.720007284648702 16.803876588224202
Cs 2.4383877093796236 6.005955460755993 17.504873350395073
Cs 8.600384969605829 1.148252529263323 2.810825421083466
Cs 1.6170619451552222 21.071838888223358 7.588343197969035
Cs -1.0764970262058293 1.2161411149784995 17.49525375846931
Cs 19.708016450024072 6.0584508530250805 16.93314504938926
Cs 5.6754746330753845 4.012222817196208 21.97815349452474
Cs 16.355479159782327 21.44466970998546 20.315268896080696
Cs 15.488585194628987 2.5988565646777313 16.721581242418264
Cs 4.059836437643402 17.115671086190908 21.719451872717077
Cs 5.407018976490541 19.80416156914585 3.7762786642951633
Cs 2.511714873532802 16.15058799304935 6.974839684768166
Cs 18.336422156467993 3.0610795234696964 12.432302306030849
Cs 1.825783903214724 14.708681886885408 17.45985069966877
Cs 15.201830237328053 0.4621933757861206 2.961077098573375
Cs 12.541066912556701 18.986324258082423 0.4144606508179209
Cs -1.2950521588541064 -1.307834956909282 12.247163751603882
Cs 19.246710979300506 4.5201653163361355 3.5293476661763177
Cs 16.98054791185255 4.95998303646401 8.017092986466821
Cs 20.355655124787386 -0.02820042341787016 1.077341341872234
Cs 16.888393330480344 16.049548116590934 20.72909449751962
Cs 2.153571363318931 17.131218613398715 12.224044486492685
Cs 3.8152812608254565 0.0482572575032707 12.475872559977216
Cs -0.7787992509826241 14.709981722847585 22.429680625271395
Cs 17.661254178987612 18.13154691687642 2.5472296620670263
Cs 2.4204378065504413 1.9654449490633892 3.6226466989070594
Cs 21.951154626908455 2.9016326857149672 8.006262663107066
Cs 0.3580752402204182 18.604913367713205 2.891725718854189
Cs 17.294442548603353 4.0128134981806305 21.320578503698314
Cs 11.922764788917215 1.6275997799364603 21.226808097904474
Cs 0.028815866771601174 4.52125245664234 21.885064770647123
Cs 5.121330019173947 1.6449928544675325 17.28166106549394
Cs 19.00185544459388 21.584066785911027 6.6994381008691555
Cs 21.195442724969695 19.038742077372795 19.60900715088635
