34
Energy = -23.79528419 eV
Cs 11.611587009762307 13.525953595454558 16.229295082900542
Cs 16.393009015233467 14.592942226637835 13.801915240466982
Cs 16.228494623507267 10.935782992905619 18.00278986068313
Cs 19.19891757779989 12.457463380182594 0.7764518152967215
Cs 0.3840354834571558 12.033915573122933 17.700194234833532
Cs 12.437874862498573 17.58562793367762 12.4306790800316
Cs 2.2767115845840045 15.301278913959537 21.392498375310904
Cs 0.2680290171411172 15.703749373315603 13.93949166459367
Cs 14.19103996846958 14.867645309637622 -0.0020551945357936852
Cs 16.57296891812909 18.458716713375168 3.3762821865623276
Cs 18.522707511687273 16.22802958443876 18.53175113544734
Cs 5.005531562470514 15.271282280537104 16.631430624812566
Cs 21.199936613500967 15.673765909158458 4.727932149395285
Cs 18.11074907617149 19.784330001808172 14.194610184629203
Cs 1.747599698639538 19.41883838742383 17.713549302536272
Cs 7.866133831677344 19.743512255375965 15.550526295410394
Cs 12.96993839507013 18.27477248705658 17.589903157810696
Cs 6.368497054073412 19.31841394747 20.816304504359444
Cs 0.94344119970465 1.7435764689317919 14.075530439497875
Cs 20.794970183341963 19.449725855203557 0.5420932540778736
Cs 13.223377279813004 0.9619618891596144 14.05428226060074
Cs 3.7703955908545055 18.714026302095707 3.763458797317984
Cs 16.47548989380728 0.1445001843620866 18.934818543963267
Cs 16.225379703333598 13.523924465061054 5.001305087687462
Cs 4.879556682325755 2.1529287729718196 17.97042968772485
Cs 17.702864264939553 3.7812947619658175 14.754625057536753
Cs 12.396341063232974 20.37533481507749 0.9795734833520393
Cs 2.7064300338550558 1.6034460743171026 1.3584617888174706
Cs 21.082294027311022 2.847078266373481 19.185801765348554
Cs 10.804439626937917 1.893468892244867 18.66038486175951
Cs 21.08864578395846 21.08714935334799 5.658674465851174
Cs 12.852443610205574 6.2234776781069145 15.82096758465179
Cs 17.590220639736653 1.8937374612431999 2.1675740177570932
Cs 15.96452759378824 5.398820863333521 20.022839302763412
