32
Energy = -22.30678471 eV
Cs 0.6736541919943276 18.034421609100086 -0.7031760520414307
Cs -0.7811160506324295 20.40004540819013 15.919443335311868
Cs 19.948501962275188 2.30516843550395 11.050331846641246
Cs 14.089226640046496 21.6201629220331 1.6331567548902697
Cs 5.131891775356299 19.93034744461551 1.604092761011793
Cs 2.6701489797436757 16.419108611270584 15.356268164122012
Cs 20.260649499480895 -3.0269081079295237 9.147732897248645
Cs 10.126271289812312 17.106432727657367 0.5368732223038075
Cs 16.57360962905605 19.3501434578167 19.03311512962618
Cs 1.7396378202715341 2.9958067166622833 15.595959844985972
Cs 4.6827507876271985 14.643610464556179 1.9013268847877942
Cs 16.56060115006369 14.904080843559694 0.2778212899877534
Cs 6.282468026493881 15.859394425912415 19.008566257449516
Cs 1.6482535112743901 12.697147218218735 19.408928873173043
Cs 17.78098273864953 9.432674052744138 2.4515572995972343
Cs -0.1345428419808668 6.558246977218271 19.277703645545035
Cs 18.621968481628475 19.001939312022714 3.4088206772386864
Cs 18.283070107942418 10.582905116002733 19.1202163400118
Cs 4.3770830803684335 20.72885816919835 18.088464116818983
Cs 2.9881146410230603 2.6073831162494248 21.402878967509157
Cs 16.424063388382454 20.50751969912095 13.26605738441131
Cs 18.261247472599422 3.2842600783762967 16.231625124508838
Cs -0.25036690354904834 5.746261613484196 2.5978936765526393
Cs 13.660888279819725 1.6353077971574395 18.445961624398073
Cs 15.837018049063156 21.220756338105158 7.744275123943476
Cs 0.6564253199325104 0.8327523112965619 4.745482967141082
Cs 19.79180045087974 1.2481820458466113 -0.6699948212612405
Cs 19.466230110794783 15.385024657371309 17.026903346977498
Cs 17.419789295751087 3.0680014114578453 4.238975697005973
Cs 16.558790199037073 5.474264073220784 21.047974206130746
Cs -0.5572316378630364 13.398135099312807 2.3285244298592667
Cs 1.7257876759231505 17.510311775647565 5.201136881528065
