36
Energy = -25.13577915 eV
Cs 12.441428234993321 21.594681943761202 18.36525136865987
Cs 0.9765136980679462 14.90578012893691 15.92103606841726
Cs -0.9471344355560725 22.27115696304972 1.3724318827539217
Cs 12.25223035079571 19.667489466519278 0.3438192910907721
Cs 20.228130069308186 6.684960958937384 4.172771053355986
Cs 17.142641284324164 21.331514067538187 21.711531493189764
Cs 3.251174304777376 18.477634981271088 1.3666379417223737
Cs 17.014724884030972 2.5524331345675737 3.2356967813798088
Cs 7.42498790014943 19.445762905203782 20.645943763089612
Cs 16.182732078900692 16.084693307290376 0.7570671298737793
Cs 0.9854982523282494 8.21424810731004 20.522624345536933
Cs 5.829786082038817 5.759183161080242 22.05119813507372
Cs 0.2752488080376839 19.30601168008192 5.917450010375837
Cs 19.63945992303528 14.26515697941753 19.527250208213395
Cs 3.2563373468193535 4.300165711751644 17.674587448243134
Cs 15.270207828784375 17.15911331680424 18.365930185010114
Cs 3.0246178829986534 -1.0631752276822894 16.491904402379408
Cs 18.635759979462918 15.798906723831292 14.446960142609068
Cs 13.095164081000814 2.5704222102982164 -0.4240687375059991
Cs 18.889630957839188 20.678027942938147 16.476800400820583
Cs 21.714164925380615 1.8607550812470204 19.163217714964503
Cs 3.7688492955970125 0.419207671225182 4.439469990070398
Cs 12.435817348728161 0.13647989999532043 4.312475934052715
Cs -0.0018708665865568627 19.039046407640495 12.940289659740019
Cs 21.085286735417206 16.729180473872074 1.6243918356910831
Cs 7.832590169277466 19.573508014996335 3.5003723992144566
Cs 8.237050447430592 1.365084723637682 1.328701350317549
Cs 17.684202149098052 20.126080800083475 4.187565916021376
Cs 2.298460068248885 14.163470820449419 20.802956213878545
Cs 18.894647473854214 5.259567553171364 -0.7033017492365722
Cs 16.5334123869807 2.519367283556307 18.210077977448716
Cs 21.461582648891266 1.7672647128014956 6.192120493852009
Cs 8.034322210002596 1.7663172739394868 18.855208644642477
Cs -0.1684557973225028 18.907176604633413 19.697324338257484
Cs 1.2203906788484729 4.317415638915474 1.480900630100935
Cs 3.642839481250393 0.41022411286911087 21.60021680268396
