37
Energy = -25.63578201 eV
Cs 1.8828817935654556 1.8261287510319602 10.199016558366555
Cs 3.5504792467052133 0.8305141034105948 15.089486764937726
Cs 3.153972233885282 18.688401071523554 16.30610018819541
Cs 0.3396826668604437 20.002207344311966 11.661683647999336
Cs 1.0765550246259965 14.71173586554561 13.31327149186893
Cs 4.808533463817059 17.172287129586753 21.818424770632166
Cs 4.6797946010596085 22.36690523857089 20.046066262185114
Cs 1.5153021337426644 14.415109352944834 18.78266981239729
Cs 5.100551759720967 21.276052930515164 2.185295774301429
Cs 1.0601138495113316 13.392369743099648 0.756471465038315
Cs 22.74430459755165 4.301461433228358 14.158727046456857
Cs 19.217308874068326 15.664790476751033 11.279525961893727
Cs 0.15360986839176619 2.479119322039032 19.09034730019578
Cs 21.543759723240697 22.118447025373737 15.81185829388216
Cs 0.8887014971419734 18.205021653608362 2.3879046129514068
Cs 20.593890705276063 17.039009798257393 16.302895269280413
Cs 0.11653354798975732 19.906539873249617 20.46079108755893
Cs 0.5523103078020953 0.9477117773165472 0.8097918760919847
Cs 0.5715769494986614 22.503667457844074 5.899128912048201
Cs 21.33381934216543 18.132241625739187 7.316862089324934
Cs 20.002032075883612 16.071227274083093 21.427210556284518
Cs 19.50527189944399 15.098457008297135 3.3968563669139744
Cs 19.60372850762274 20.700424487935766 2.39060411251226
Cs 20.046469424648635 3.0218778063810587 3.9733496243353343
Cs 19.11089564977085 4.226762602734245 21.97691662314995
Cs 18.14200706757917 3.0280008063546924 16.506415160363108
Cs 17.47748518590021 20.41501111756467 12.923517643113993
Cs 18.329415152018782 22.29814920390983 20.52240213522314
Cs 15.790692437305978 18.268638184038092 18.5327719973371
Cs 15.526423330515218 17.956496370158543 0.9481885396291867
Cs 16.055125555706212 17.579981494665944 6.716781545963041
Cs 18.001892936977665 22.384750224249128 7.140740864623906
Cs 15.64995354629551 1.1086174929785217 1.8112086023547254
Cs 14.013209815421904 22.78146264034171 16.477768291307683
Cs 14.196511663455764 3.332964437167323 20.19062119842883
Cs 12.377535444657681 21.55697486057339 21.56182395511848
Cs 12.500078223789561 20.73677386785022 4.10569005127094
