33
Energy = -23.7780616 eV
Cs 20.02621207088412 6.22985402101022 0.12537158945716761
Cs 0.7897158978670541 1.7150364356424623 3.3741986706048652
Cs 0.45533545339275083 4.6279830220920255 15.342783536871561
Cs 16.522406700624607 2.3123196120704868 1.552234166483826
Cs 3.9171157820114066 4.162229539221177 19.748923177922762
Cs 16.29310489291521 4.0188360918618775 17.291591938623753
Cs 0.28470420997471535 0.24284358124698166 18.971935692078077
Cs 12.7537237359746 1.2676851172883241 14.456814113539274
Cs 10.537975550108621 1.1520028483988507 19.508241556514054
Cs 17.579761109409414 1.832715345665358 11.555309995417156
Cs 17.301958850715508 18.997438717376173 5.091924257333166
Cs 5.489490470371751 20.293541462246086 16.543451980157318
Cs 12.122082681611458 20.557522922306692 3.780561975433486
Cs 0.8912977260921812 17.170240119775965 2.196710225310496
Cs 17.40713443354682 19.487159446091415 15.491633755449861
Cs 5.478540979293714 20.31116844495419 1.2887672450850534
Cs 1.428447235203759 20.679430320411917 12.91048894740356
Cs 13.276328310783418 15.375063519067611 4.4263539363938165
Cs 9.47945365623471 16.894283272309675 0.6775374224743744
Cs 15.082482026609652 18.30876270045294 20.309135321698157
Cs 4.57131262312931 15.372734405735248 19.130678711457797
Cs 14.066445791208245 18.221966719480008 10.534378520587902
Cs 19.905211738433444 15.188096212984311 17.96092256873747
Cs 10.9216866573979 17.415105173337967 16.26273035857605
Cs 2.7467659223628718 15.604096316437913 14.082096094588282
Cs 1.2947285539302018 11.348815068499006 0.770551545995796
Cs 17.54122130190022 13.66951320393486 1.9473797030373337
Cs 19.151152508746044 16.541793895691438 11.189163299510463
Cs 13.044595727803392 13.41026163671054 19.77642104609868
Cs 15.458417927805513 14.563302820367548 14.964357986776404
Cs 2.3516835954050808 9.49951907093275 16.920894439354083
Cs 19.91572728039458 11.585449876269463 13.42961873073664
Cs 17.433303828901206 10.161538309734931 18.098568266688318
