35
Energy = -24.84889261 eV
Cs 6.348267894196561 19.983220447157453 15.809652330393597
Cs 6.762486785198403 1.222159526770232 20.406684896315678
Cs 4.736969399843779 15.950236987973522 19.198127784048076
Cs 3.196818637039975 2.95317069838287 15.391343891393799
Cs 1.0885516052229833 16.375467703612653 15.386091167149855
Cs 4.722778216378072 18.91924226294794 2.005698498175084
Cs 1.7619429123161943 1.894691938392453 2.275745164883978
Cs 0.8165546964257532 12.156622651648977 19.58773216896956
Cs 0.25560820380695476 20.80021890694345 12.301225493459429
Cs 0.52727638559986 13.907456358073508 3.4150872161163104
Cs 2.030046631501748 21.06504021531534 18.79687787392845
Cs -0.10864498912420387 4.64222181836267 19.633166770834137
Cs 21.34400847537957 19.324001975053243 4.889619266622784
Cs -0.12492112949400394 15.801853046135802 9.435747214702184
Cs 21.603947817724496 17.29328681747437 21.361928431832787
Cs 20.1090084114288 11.74858565663592 14.73593669243611
Cs 18.789855771299603 0.12646664825304824 0.2782640315734125
Cs 17.97753864741188 15.268738028779492 18.400598978427084
Cs 18.73078971476962 20.314534691118038 16.734942821514746
Cs 17.68181014378824 10.948511503098688 0.011499317977398296
Cs 19.59122276333202 3.638240535395285 14.596730599548644
Cs 17.687038586578613 4.741451545354907 2.143496031173526
Cs 17.024406083632933 16.091342023885915 2.8310849127353226
Cs 17.553986823366316 16.34611016981491 12.870173440878647
Cs 16.20067105328588 21.350965642213794 4.730144685385733
Cs 14.712229499635919 19.29105955570053 20.146625863162186
Cs 14.872135569940724 12.14358011089214 15.940043159103283
Cs 16.049849017458246 3.6107890563756477 18.49613208629587
Cs 15.644490628528605 0.005164313133265976 13.002828282979614
Cs 13.227993102330244 14.1682882128104 20.74916243111996
Cs 12.030883515163897 18.38567653430211 2.9707047895051657
Cs 13.08950208234435 17.291479540556868 15.557941975880269
Cs 12.822898905546284 1.8956894472283683 0.9469419330115052
Cs 11.591063543756286 0.8080113764980933 17.031825585482014
Cs 9.459420445598305 18.211270161187173 19.887033422860064
