36
Energy = -24.22166944 eV
Cs 21.358156465628138 -0.7078501489528646 11.488283146151263
Cs 6.642283298119764 2.1986844958898635 16.98158675927653
Cs 1.1424740376688367 22.230597698908795 21.896117715027668
Cs 1.9369563298432333 2.167937254960217 18.9013597070917
Cs 19.164807524206584 18.758853083412422 3.826895967273013
Cs 22.180049108492675 5.673906127295451 19.163713175946658
Cs -1.066004160104742 16.097949213095227 3.7534061327498973
Cs 24.12694741019961 2.876824282811539 14.414972907119877
Cs 15.057372115339641 21.94927155673056 3.891459829878291
Cs 0.774516458967948 4.683104163419406 23.319069845292976
Cs 18.668688464167627 13.578280205539645 3.5261653661673362
Cs 19.708845076949554 23.679171202054896 5.898347462844659
Cs 0.058169193598804035 6.146815492707879 3.4892219982099735
Cs -0.20585599555735162 21.668244681160783 6.075967695820659
Cs 4.670560820809495 0.8059394560949453 23.391122558364174
Cs 23.701854253361432 2.3233557893555847 7.312223318591547
Cs 2.8703429817754307 1.6050676518720168 3.696668057744607
Cs 19.34584273329802 3.7706578227566143 23.33726678895512
Cs 19.365252065499288 2.3047344204019766 15.993718739508841
Cs 22.849808326863865 10.78567122042076 4.3582980260971524
Cs 0.6794825269375906 16.871071935284476 22.698543106956556
Cs 20.693239622785818 15.139513674936437 -0.789590068880114
Cs 5.41840546338075 19.09843237018846 22.748026095089923
Cs 22.064369594255773 0.5073401313978834 20.450261394431017
Cs 3.5681629156955688 21.302153300971703 2.4382267633570103
Cs 22.969470951907187 1.207077831108678 1.5045678542471668
Cs 18.6269768180549 23.244149546805225 0.23993964425332617
Cs 24.366105090559614 22.468562225671423 16.35100400499504
Cs 17.130683508188916 24.154171019644664 19.912550850610103
Cs 19.33285894965263 21.686775226755916 15.782009526611883
Cs 23.023315264834135 20.628637874254036 1.1081216836583931
Cs 0.6820532210063065 11.810030153458 0.11770877422342946
Cs 21.315594100363853 8.689046150773144 -0.5405903958119938
Cs 5.256923971413093 22.374968063179594 18.709336168567333
Cs 3.7595904339484307 15.919624846316301 2.1572715529219963
Cs 20.9747078118432 19.868513865949893 20.672585998642614
