31
Energy = -21.64310004 eV
Cs 13.296164712183927 -0.004194470549635509 11.666996573993295
Cs 12.122983611579423 18.89310949064273 16.101662888872106
Cs 15.462976562729835 16.91875481406292 11.941610701783901
Cs 12.474552506108907 2.692083416713334 16.407804003585856
Cs 18.812969083318148 0.10699798569861174 10.473130277371121
Cs 15.583763947558671 4.449000305993468 12.480175972333683
Cs 16.672707191585307 16.52856223270135 17.44364959885918
Cs 14.50393667641694 20.926575129041595 20.29689353108069
Cs 17.32413531042752 0.3884924664516413 15.587946543181083
Cs 14.639479456215795 15.9854205003643 1.0878957376983622
Cs 20.52180166717431 12.639601511721628 17.005046092254393
Cs 15.973685615565115 11.40876693868559 19.60516147459765
Cs 20.392645735035746 17.18094288565485 13.552562357607982
Cs 16.847730798677414 6.289700156685251 17.40060133137619
Cs 20.54323175369469 4.701077885304523 13.71753894829203
Cs 20.54877431615973 9.004704086172598 21.230464032782262
Cs 17.205797061871788 11.56446940027075 3.1048656416815112
Cs 20.326285908654757 20.272262987655512 19.505025925191283
Cs 17.464382986251195 15.842799266877215 6.441079193079433
Cs 17.743512034685818 20.125695680299557 3.0903100344022514
Cs 1.363532465480593 0.13949649948711057 14.648469677805119
Cs 17.764241449118842 3.385314184561229 0.08997091922222109
Cs 19.87439290668704 15.583603048177634 0.26668732387892646
Cs 0.6004011277870799 4.015454121113688 18.611635398054723
Cs 2.422760795397659 16.918588584070072 17.489890727576004
Cs 2.9456139069442018 12.753597016912737 20.719509098996884
Cs 0.6556113863173338 13.313437908487462 4.16761635955937
Cs 0.5363282301454586 18.541742770622427 5.789735510807705
Cs 4.287953061426651 0.11009523191163993 19.339906856634364
Cs 1.1985957560447789 1.074412349584403 2.1479352612895997
Cs 3.4847703887804107 17.595123972728057 1.3425236251613764
