31
Energy = -21.90623767 eV
Cs 15.223922716679558 12.704585726062616 20.827760747882504
Cs 20.029974475667792 10.004106475514085 19.911141678309058
Cs 10.653697684018837 15.88762949180306 0.4054240084414829
Cs 20.03962239776672 14.80877617580536 1.0763605604736624
Cs 16.146376646448147 11.335014954474419 15.3714789477648
Cs 15.25634152970967 18.706569431543368 20.373143002488817
Cs 11.213628679302802 20.68685702342424 2.3904933691250845
Cs 12.705107438223285 15.614584424768362 16.66731626463443
Cs 15.37942424420403 16.567176389447845 3.57552705248585
Cs 18.70462170409225 15.501065527347947 17.24919238768138
Cs 2.66787913971586 13.347147958537573 18.8482325553656
Cs -0.0028796215715862303 11.193754630344143 14.574405034580238
Cs 4.815660410786845 17.39294415338917 0.9461041792128673
Cs 10.3056272725574 20.537790988140483 18.33269201520901
Cs 20.333701842502485 19.894279976183174 1.8527446650292483
Cs 19.340219651914115 15.61202613294702 12.027207494065834
Cs 1.2165063959625038 18.667666172885937 18.556332193683073
Cs 7.087303686902829 16.25606054226442 17.560749413158003
Cs 16.151674076888916 0.6502324784304806 4.0027747970004555
Cs 14.276525235981795 2.926557772094213 21.101643821587228
Cs 19.886273564838277 3.901060497697533 0.6673761713600075
Cs 2.8116869773809623 15.89494539214131 14.144938986946292
Cs 18.309925966402847 0.6682869629642307 18.16979262010418
Cs 15.792635232302544 19.340810113286658 14.1472220642247
Cs 3.9632561013234398 1.1104393679698998 20.96065302523659
Cs 13.612012195219434 2.5108587688765684 15.779134432541637
Cs 5.081054629673699 21.067166760228456 15.781155128798616
Cs 21.215540421814104 20.41936366153362 13.735333023497963
Cs 16.834324559904243 6.296329676633944 17.758705581062785
Cs 1.0772618090090629 3.6316559734526006 17.093222261966037
Cs 18.288017236724624 3.473941524319278 13.388628175295091
