39
Energy = -27.95363104 eV
Cs 18.958106780934628 13.55946952209819 1.7433626514251945
Cs 15.98038913505028 13.699019765802994 19.35696801145987
Cs 20.082032488710333 17.191576106033107 20.485569614606696
Cs -0.0331300138797062 12.95607679847797 19.236517214759584
Cs 19.058794572092197 15.572923940028303 15.453432829592447
Cs 1.3991582862763918 15.355107966774986 1.3666543673458684
Cs 1.7433764077310467 16.638755132370605 15.730048614672194
Cs 13.421157600303486 16.128117313651043 14.920646564015764
Cs 5.228975137089957 15.454587280311483 19.873623292328244
Cs 21.900062508151642 16.25151193547021 6.308073267201909
Cs 14.758569134374326 16.660830915702515 1.080981373977144
Cs 10.747994299544045 16.64408008946331 19.619500942899325
Cs 16.67338832190895 16.528990389795304 6.460913049071517
Cs 5.933448741121315 18.280085208921633 1.9857153700303285
Cs 19.365110653086298 18.999174036505142 2.556316498435857
Cs 21.33780003022145 18.264611956513516 11.410353918945816
Cs 15.688259135070101 18.929194289380273 18.52019835739332
Cs 2.207064872373491 19.46257133187307 20.40864626704265
Cs 6.587192987726223 18.938428288354082 15.720829157069062
Cs 2.410881992758542 21.739098824485847 13.695005524215391
Cs 20.787159115101442 20.808469808225386 16.77642725064985
Cs 4.020210161676516 1.2862631313048165 18.1165184399843
Cs 16.377741832262206 20.12465155730558 13.008581102954413
Cs 11.66461027636566 21.348217943779357 16.629094671287213
Cs 4.575969630183189 0.8237057651568362 1.0416998200552927
Cs 7.565864794321724 20.81922727476979 20.255386343829496
Cs 19.358522499933542 21.086859858844612 7.543943521896491
Cs 1.3438848011601523 20.673474719811143 3.7794909630004176
Cs 12.03851925115894 21.10057873271732 -0.08607561423619382
Cs 20.206952322389732 1.0705489655903224 12.134054091757934
Cs 17.074215766865162 22.28666176941478 21.74177768443548
Cs 14.836652155296123 21.097866812173606 4.434914874697377
Cs 22.16871635164459 1.092759574523001 21.615428099044614
Cs 16.803279178414865 1.866433943742667 16.52514116136126
Cs 21.996702053989488 3.4737637207190546 16.77939541666653
Cs 19.35175928827659 1.8893346880842912 3.4656353878629753
Cs 14.258437425676778 3.2996070930462555 2.1241725619291074
Cs 12.886636262197937 3.0864964783748885 19.72267403224162
Cs 18.125818897249946 4.690649151026343 21.077273299176795
