32
Energy = -22.65753336 eV
Cs 1.7049488294278288 4.355604937388689 18.586073852867013
Cs 20.557638371423568 2.367594894662075 1.7115600620090576
Cs 17.448397656707773 6.083332034011089 20.32999658251662
Cs 4.590917112948496 0.4002929609857033 1.1683958006357045
Cs 18.734253702892886 6.48752419955018 14.658664210049194
Cs 0.9191637143058995 19.661324959874285 4.913407539159077
Cs 16.789652740268366 0.892598979195793 5.285732022819338
Cs 14.798288933074891 1.1857860679450476 21.02259932031033
Cs 1.3177959617660708 2.911738823968697 13.470986421374242
Cs 4.220247766664565 20.60693975107367 16.502827701549602
Cs 18.61420145458539 1.1845497697282736 17.267122470845315
Cs 14.248911902819236 4.3694536244409425 16.24029555304446
Cs 4.071665810548733 16.25132081879429 1.4516027084349916
Cs 0.6686439880646445 19.12233973517218 19.77000765854508
Cs 17.01902721484173 16.742009247260388 6.6257336301174465
Cs 17.203481965631493 1.5664035105654248 11.993147043777215
Cs 0.15096784253936202 14.510699449261939 4.749751213683604
Cs 17.985663305810643 18.22424422742803 1.5832684727380542
Cs 0.002977887390905024 19.064568088345332 13.23592968971786
Cs 12.82544442682741 18.621511523468524 3.5626708707445274
Cs 2.637660545012222 15.470344710042694 16.361663210388002
Cs 13.609119464661356 20.19136000397953 15.592169461233723
Cs 20.851786742062192 13.46998815248818 20.705211016437474
Cs 17.974155146087913 16.080042855687672 16.62680599876855
Cs 15.731210776932347 13.600938638926813 2.237659737560481
Cs 20.607871622998456 14.274522111602593 11.227683953622272
Cs 15.968708651377982 17.309963240651577 11.628202547456013
Cs 13.484171707544181 16.911711565110796 19.793611861990563
Cs 0.1272273319014443 10.93620053022332 15.9567863871481
Cs 12.804069138038187 14.77618593589971 15.037627501896946
Cs 15.592473421211592 10.978186063865929 18.473050983910493
Cs 16.498817764800233 11.49955166344229 13.191215062907036
