39
Energy = -27.94572548 eV
Cs 16.12045141160816 12.032300380013798 2.8289286493971746
Cs 12.316033895429339 12.32673504093272 20.825651514430863
Cs 18.301882980963555 16.362499066969725 5.207067872525789
Cs 17.843219006643128 11.475958506674841 19.622972317088443
Cs 2.0914465561207107 15.687138098748335 6.52796521441569
Cs 21.36572811927702 12.447534037108285 2.305199595540429
Cs 14.066060724937588 16.930399810736503 1.6269223507144768
Cs 9.36294126122244 16.98091045116006 20.415603311736586
Cs 16.77002578341818 21.372479576670884 2.416648993806552
Cs 19.283565016361592 16.831673577909807 21.403470929663246
Cs 3.4173802080106404 16.388708846167404 1.1233428587254213
Cs 5.543042535184457 19.628868955966876 5.271949734425761
Cs 14.75387404221908 16.352272597918585 18.154196444180027
Cs 0.1501094827687576 20.316741275382352 4.436756331528206
Cs 19.023458182064143 14.368341741855298 15.251307189864955
Cs 11.753030906113413 -0.00251275014435269 21.236207282315
Cs 20.155141075685794 4.070370142972883 3.3638381775142827
Cs 1.3700551168618074 13.139768868581509 18.679454081329045
Cs 11.21713751725363 19.766589494337968 16.114968315800354
Cs 21.35557747315889 18.842381126348084 16.49769856257434
Cs 15.985479114402935 18.39544699283743 13.2763625392297
Cs 16.513700829066913 21.365838895599747 18.150432567980967
Cs 2.704937214180085 15.02700777127783 13.536765041307703
Cs 5.117974154617356 17.873157798773228 17.32569762418948
Cs 16.103669430254662 4.3379696127796095 21.372301806126142
Cs 12.17316537808327 3.661733362498064 17.49192907869959
Cs -0.23366926036099064 0.9450228044660662 20.972163564800816
Cs 5.812512751962458 21.10501129974392 0.0194736388649589
Cs 3.622370038613609 2.7501444122858283 3.756894556961519
Cs 20.54439624346655 17.3249652889437 10.55703638935457
Cs 2.437951865426621 7.929658291405271 2.3009012311044397
Cs 14.462588282520665 1.6233649905035306 13.26399853423801
Cs 19.75938337540632 0.6706326403262605 12.59164696306808
Cs 3.6404778538470923 20.309128569436407 12.580946265432534
Cs 20.97331124748366 6.767727146582861 19.750328647301288
Cs 17.748375335296977 4.597164302467698 16.237781932083898
Cs 7.040911582808531 1.2458520903582184 16.773959720880626
Cs 4.340263134907632 4.483883481800368 20.293665280811684
Cs 1.5071606770091157 2.4308873957447514 16.249956333977213
