36
Energy = -24.22196446 eV
Cs 16.076759632675387 17.999450805193526 18.092790150808444
Cs 4.875558053613133 21.312500778815153 17.787457943159513
Cs 21.06474848597635 10.43135835349109 2.759462117375682
Cs 8.445374664803413 0.6483908848329865 20.547767251522945
Cs 12.785617631398353 21.101697930202295 20.682749795673004
Cs 19.220975895725637 -0.1041609424200107 3.682023713199458
Cs 5.545004393404055 16.073905434291955 16.725870320294348
Cs 2.4986951514990317 3.0409514511346396 20.155864076763915
Cs 18.308854744390676 18.57525575937816 1.8132703483848023
Cs 4.218473167831067 22.6443220871467 -0.4082961440004093
Cs 7.634293488753703 18.980432163692097 21.4885133797084
Cs 13.569320940956668 2.4404160736399967 21.868177833998892
Cs 18.174805094439797 4.891275434021871 22.540222290651055
Cs 10.641050197214897 18.044830415913893 17.031024054109796
Cs 0.27813245990508434 7.636837153921705 17.65675191708529
Cs 0.13056218937938843 12.761339320130702 20.341858221864214
Cs 23.039046116300614 7.0934465028435225 -0.9480103399785023
Cs 0.4010060962918722 18.187311539315566 16.22140556898246
Cs 0.6708143310404105 0.3889700733217796 15.405331594836161
Cs 21.383684685447783 19.301757629171945 6.428854043197819
Cs 21.34931340802969 14.044607328432118 6.778598353571984
Cs 22.909149544917742 15.284155893565389 1.6010612726324
Cs 20.526822224737543 5.17773680232354 3.664472475196069
Cs 1.5784852683969164 12.884964747340865 15.269609204455104
Cs 14.24622290552889 22.152079532765594 1.843621338532036
Cs 0.010641411897951382 22.020129591587523 20.174032792562205
Cs 15.410418429479822 3.563016409568354 3.020708215622761
Cs 2.510993275042955 17.378229607319398 21.3378531811669
Cs 22.00712256015346 16.86912846362578 11.319395684043863
Cs 5.791397960885967 2.5034516178601516 16.31325434066159
Cs 22.65157400852754 1.8423508853001775 0.1420530732304411
Cs 20.82640641882571 2.9017107649439464 18.594667541645016
Cs 23.35492014104409 20.518445509266964 1.643901880214332
Cs 20.67621518590952 17.760500120834973 20.707636099491424
Cs 18.31689187583079 22.907938056452046 21.98902992777096
Cs 19.753218540837782 21.623836401867774 16.609587062658964
