39
Energy = -27.94212629 eV
Cs 18.341132093158187 1.349480476657389 10.28830785181468
Cs 0.4105607082661068 19.953953942605335 10.80156209450893
Cs 17.378626648243976 18.040928637800132 9.323829865702198
Cs 5.052302992696559 0.006241086064521917 12.836980179411457
Cs 0.37927572195515075 2.5950083366410865 13.951937963402589
Cs 14.089586300253778 21.18717200393147 12.999017292102927
Cs 20.369789373016754 15.280973058483644 12.794057164900817
Cs 3.2968152987194475 17.153833116171064 14.549628852286807
Cs 4.484121501598241 3.082701755395697 17.254493423058634
Cs 17.352291240872155 3.0197832933279964 16.14641476876298
Cs 6.974911716189554 20.633801246631528 17.709852400178097
Cs 18.493467024141818 19.704164233353872 15.305658119309417
Cs 15.05075400118668 15.748636856572935 13.711814259309124
Cs 21.591350871144552 3.6973842795288996 19.413223878813653
Cs 1.0917504475589788 20.666819743842336 17.661051932570885
Cs 11.052917673276873 17.816291034447918 16.121392147066146
Cs 21.053253128709414 15.33734929460187 18.20676661094023
Cs 13.14680487748463 0.40411504746722265 18.20129926986572
Cs 17.515875508626475 11.889644320248077 16.14196569681512
Cs 17.768454931292357 0.12961010790681016 21.217335730060995
Cs 4.388141322877343 16.57981652719873 19.827498730765495
Cs 12.760061321544363 13.411278440396535 18.346061287530183
Cs 16.68196289537541 5.078207923327675 21.497089250263212
Cs 3.9829861939966036 0.1506736080209066 0.12824385434487554
Cs 16.12821974039845 17.258056064311205 19.69641051192023
Cs 12.430603735588578 1.9303045755735881 1.2279865652323576
Cs 10.633023103248531 18.708842542883406 21.373938946591853
Cs 17.385428663095144 12.059770007418129 21.357669911279334
Cs 0.8334865973184139 13.702173847228337 1.3525744642307707
Cs 21.682239567218787 18.849761445976828 0.8559283364448528
Cs 16.277690719023845 2.7487106450048513 4.638169860986473
Cs 4.915093385288678 17.25066607748666 2.8957420025477103
Cs 21.459787737878226 2.7626023174936645 2.581825728937666
Cs 13.257191350225893 14.637923868887189 1.7731313649750218
Cs 14.761890353281798 19.490200237725805 3.2569821313395284
Cs 2.8599766992671154 21.350892815611413 5.493934693850697
Cs 18.18672420428358 15.503632313679985 3.568828844772572
Cs 0.6635420647727328 16.427166479359794 6.439583948129768
Cs 19.551814654057974 20.666046174284823 5.458292912888366
