37
Energy = -26.29706857 eV
Cs 6.056648867763497 19.92521089721627 14.693513945319765
Cs 5.479331529225158 18.69016631910971 20.187752472290953
Cs 1.9293109731202045 16.462208664207928 16.197281751503905
Cs 8.070055576817287 1.2314283878934473 18.690477253179907
Cs 3.9967220005500756 3.0054989414655195 15.240873436248219
Cs 19.1016514316798 17.537838976584244 14.125856192579239
Cs 1.0958547559348162 20.870034208479943 12.778803743582396
Cs 1.1912714932983333 15.417445475886497 21.49683051354616
Cs 6.8884844945157 0.27289951758482994 2.2127460902719145
Cs 3.423382121152176 3.147490887975065 21.253051981929474
Cs 4.647720282060322 17.84290622426927 4.010928886440565
Cs 1.1157304325923965 21.520259544538828 18.114370212122072
Cs 0.8212145769391452 20.49655262130494 1.5060011826004633
Cs 19.37110242315979 13.31071383039646 17.709977133177777
Cs 21.14586237678919 3.7122668016605327 12.787006458675005
Cs 21.742234388444803 5.203709911578924 17.954761439211072
Cs 2.964521823555616 16.84525948844663 9.880137033078558
Cs 2.3521407520607975 2.591417986707279 4.687266764046586
Cs 18.250313298769484 0.42336183420737583 15.890758857475909
Cs 5.32198155007455 21.415065959243165 8.172812375482017
Cs 16.915670879110618 5.6071334389775584 15.828953781590267
Cs 18.784802780824087 18.382835533573548 19.7548615997329
Cs 18.635154338592177 1.9170155339354873 20.996875404468753
Cs 14.816430759093903 16.040852195441076 16.884287768842242
Cs 14.144713848612794 11.813613391572405 20.15539608261286
Cs 0.021168398974746927 15.373209815859463 4.793848507465547
Cs 18.267512808051606 13.470422461153719 1.0947278489940626
Cs 13.456444124227342 20.893192163959363 18.2594415538015
Cs 13.34474359838243 4.0481852250046355 19.619589371316827
Cs 21.159277673459282 5.888106793151959 1.7921977890234508
Cs -0.003362557689010636 20.17480027476431 6.989752510118963
Cs 17.573425796745063 7.967290760114575 20.419644863205683
Cs 13.606019824627438 16.89549229312187 0.10385203533021571
Cs 17.960871938382546 18.540148032232167 3.133605348315056
Cs 13.988911099400557 0.1359709862101907 1.6286847372880495
Cs 15.539066940136065 5.223046183689567 2.351203371799527
Cs 18.820772659316816 1.662081288596691 4.5149753448111
