31
Energy = -21.77303172 eV
Cs 12.79360384417411 19.671795892644557 2.0661103845909548
Cs 15.389657432076636 19.706490632855118 6.6215442483901565
Cs 14.425443467529037 16.20808336298699 19.867103244311995
Cs 13.92031659977806 19.16195000928606 14.87233786889369
Cs 15.929526129485353 15.2366127049569 3.5063811664586546
Cs 15.251405038548318 2.9503691488190196 15.403738689610249
Cs 17.420721507748034 14.716582889437666 15.781357759460793
Cs 16.06558117346555 2.433063387983817 2.6860712478938877
Cs 15.936815433818245 21.191668688601993 19.573399225336022
Cs 18.673672211189636 19.479002841560526 2.3295360176363022
Cs 16.743553920443304 0.9351760358337673 10.937297266048759
Cs 19.7174165372394 1.1939869315577054 6.558349403674083
Cs 20.25363321379782 17.145652601672143 6.881409986417514
Cs 17.59419008986129 12.071856248823678 21.10725378570538
Cs 19.830261315857523 16.88965334457266 19.715817356479015
Cs 19.137631326284716 20.30002185985975 15.280814484561043
Cs 18.50392105756338 4.199865464953354 19.303302591824398
Cs 17.40402179276744 17.2830519210264 11.093764393470302
Cs 21.176746585541178 14.149818994574437 2.5841665226023616
Cs -0.05715489078131744 2.955314926213235 1.894635334084722
Cs 2.0331180212747904 19.99626774871592 3.94559435412696
Cs 0.33559770311280285 20.663238376873228 10.739877314697027
Cs 0.12628103781045233 21.326256387376638 19.546918962333322
Cs 20.513567245182546 3.6441179035690356 14.160504847891321
Cs 1.0617090958395752 13.087178582971394 18.482091354307787
Cs 3.4984459439055167 16.488844953590448 0.5402864796525955
Cs 2.270874913170022 4.452690966018082 18.219923582461313
Cs 0.5326484417254751 16.30902057836139 13.875903691803716
Cs 4.843129518333098 9.685356788568291E-4 21.053076643195734
Cs 4.157607904618642 17.559245241344343 17.151785893115935
Cs 3.2106075710639606 0.45661671906667534 15.04983015396921
