32
Energy = -22.73885464 eV
Cs 10.984061802375082 0.5053167621208302 1.4061625763892907
Cs 16.611493638613386 0.778425974217124 3.1166421350984557
Cs 14.103788039350645 4.418213101435026 20.261628447591345
Cs 10.858564703780543 1.0533752498308204 16.603436741494757
Cs 9.399112732282768 16.599763275034373 19.99725847041393
Cs 13.862253741650381 16.879346030475585 2.7251362467119837
Cs 15.287748193871666 19.83479760201252 19.177351485034805
Cs 19.335599116923515 4.7079640168829195 20.80635156561943
Cs 0.9060365562191297 0.11736470246420179 2.093615934288766
Cs 19.096905682040404 16.599237668123934 4.432093564242922
Cs 16.596590342125538 3.2821930520887914 15.93358678791336
Cs 14.099061061995105 13.862733127838284 19.061667459624474
Cs 12.519652314183983 16.998180263839707 15.16652984007874
Cs 16.202928332834603 12.143485991604766 2.745104776184577
Cs 0.3973465366398452 5.644813041418576 15.434958024129854
Cs 3.512220295849172 4.335564735085441 19.453272852772972
Cs 14.761336573848759 -0.007805434224476334 12.30781192712096
Cs 19.248192098362622 15.294430755180972 19.864318246969436
Cs 0.41510591175037637 11.749032458408877 2.8589088170090773
Cs 4.194645184045333 1.151984376321933 14.761940484996577
Cs 5.877437240771564 20.650433351477062 20.24755575743833
Cs 3.2949629870985513 16.055013245167242 1.4369135715758035
Cs 18.043590519040244 17.65031922693679 15.129398492071875
Cs 16.063543814315146 12.554155996989618 14.394532933632544
Cs 19.98392391924719 1.2131960512804785 12.281397780005525
Cs 2.475272384694335 10.938386163421862 19.06793424119539
Cs -0.004306527240622417 0.16159975356995654 17.864485596407246
Cs 18.01998447071466 9.814799126008216 18.934330595493314
Cs 17.93363467226642 15.679769795623768 10.202792062150435
Cs 3.6761948586833553 16.58633130869888 17.013910655841457
Cs 0.2561635615044694 12.955825377702167 14.769343504467535
Cs 1.827887163618217 17.77698898933523 12.305727954464055
