39
Energy = -27.59771273 eV
Cs 13.761287959115451 21.428812493073607 12.049532123426095
Cs 18.948837800451415 19.31475023231171 11.55551787790563
Cs 14.025485216898797 16.29163083721885 12.711959366738682
Cs 17.74937324089252 2.1083874844295267 13.926858462435305
Cs 11.214171525222953 19.037335897619066 16.690037563348834
Cs 13.637543968775336 14.190255372050359 17.590750755256824
Cs 13.129450140594276 1.6072572329652193 16.818517249844838
Cs 16.798442161025314 19.555845860897783 16.258910703955248
Cs 21.85232223444026 21.91321739610571 16.01029268258973
Cs 18.539827596438837 14.573285873306277 14.931793030394713
Cs 1.1608436807161426 16.648422014495644 13.903282008963968
Cs 21.049642645925374 4.752150637061023 17.612708337656816
Cs 10.042606843751177 16.946215276071168 21.418280653347697
Cs 15.887652058386744 17.734300601347112 20.7957510315051
Cs 14.149753985004338 13.385683799542067 0.795414177202425
Cs 12.674671530751107 21.704970241725533 21.710938744951054
Cs 0.6766031037059413 11.92503515896525 16.945217930195327
Cs 19.875619739319742 4.488980833473461 1.0383049657396803
Cs 17.726773612267213 1.189331372558252 19.739591952263105
Cs 4.375738206638312 20.13075409078481 16.551816118431915
Cs 5.04407392654283 15.08560140448174 17.758763752839812
Cs 18.53150170371437 12.603177951204351 20.000185587757333
Cs 1.44394377017603 1.1716163518901144 21.322306530497592
Cs 21.69059708227034 17.19660895087075 18.816470147249508
Cs 4.10764067627483 3.4011771963399298 17.47962657181252
Cs 20.123407506533805 19.86453392082721 0.8089875341220353
Cs 18.91089796437603 14.847519675239889 2.761689482483586
Cs 2.0132448253363786 7.407622472763991 20.912715007870077
Cs 13.818241433370703 18.08837309618615 3.4172693406911634
Cs 2.3864938673213962 4.890808649759712 3.543709523667688
Cs 16.309085666213864 0.6600053220402609 3.0478866816577637
Cs 7.663143176032386 21.852356398650244 20.23331014874938
Cs 4.0464276898070155 18.245241877769804 21.95627165780188
Cs 1.2122676966974002 13.49893020244634 0.13344952413184835
Cs 6.300287328733285 4.170030485083028 0.23514687005613535
Cs 18.478834708239106 18.97798264908689 6.118621432320879
Cs 4.502866990405145 22.11289612918502 3.3088753277339102
Cs 21.579148887998862 0.788887453179928 4.777066505772931
Cs 1.200234323113289 17.73179615277658 4.3413300982925715
