30
Energy = -20.30276149 eV
Cs 22.895829462540398 22.75221642416295 8.745624592726715
Cs 21.20358707080106 -0.14677239647058177 13.521787158381182
Cs 18.12761577605449 21.86777223212814 10.903014334735822
Cs 21.9772537846627 18.53644189284717 12.181712655867651
Cs 16.842726055936662 17.592518509364123 13.489782381509452
Cs 25.407938264709472 22.237204766790928 13.484072207536363
Cs 17.080093031378322 12.585581803785184 14.704555718956433
Cs 16.026684616867712 24.871151313141556 14.683519590905966
Cs 20.801180255404198 15.639435491378505 16.69637385051166
Cs 15.491044226485908 20.65873888282216 17.612263861587866
Cs 20.375968538335105 20.931049511630754 16.686047684423578
Cs -0.2817751730486796 18.657185594240943 17.339722940849004
Cs 19.344782503087092 0.372267398949038 18.665100040417542
Cs 14.95097822981181 15.770951706900322 18.522373825977727
Cs 18.426019652298418 12.454812858693487 20.14282818933876
Cs 24.353389155808305 24.205243174290555 18.22327537362678
Cs 19.04688027552743 17.883512138546063 21.31872971448628
Cs 14.188870464369423 24.87805541383228 20.00976519860525
Cs 23.576703093088096 15.381497896969888 21.435205817110823
Cs 23.57038720203232 20.7609986175924 22.116986661901016
Cs 15.52388581966279 15.080338385221157 24.226659179998393
Cs 22.64855069092386 0.37828474495522657 23.171019522295335
Cs 20.26197186708557 12.960111535399209 24.904714126679075
Cs 18.405525518675674 22.76749428383443 22.65607270313643
Cs 13.916377962590824 19.870740945748175 22.629152887591694
Cs 22.103635612721153 17.51787284611213 0.8096299610181241
Cs 21.71714621795287 22.640670768762334 1.8858933773635378
Cs 17.335476192341833 19.583800707376803 1.3212258296777646
Cs 18.27137752703413 15.105364886582876 3.830384540788158
Cs 20.253382225340733 19.201607896609595 6.2313204159110684
