36
Energy = -25.5896675 eV
Cs 1.9360673548946759 14.501915683143688 1.0937557463383984
Cs 19.558183162908936 16.360470036266314 4.043278289535668
Cs 6.198731671651232 17.80843612336422 0.278114780228156
Cs 19.29014964056213 11.581689369552056 0.9653633043039119
Cs 5.499655960546116 14.626197495509846 17.94490998979155
Cs 1.6518350945947968 19.586385509619586 2.594644996005001
Cs 6.993010138620997 19.96205255545574 17.536090791458516
Cs 0.00275396161033851 12.433017150824128 18.602554507917908
Cs 14.75372388834812 14.10435964568593 2.34399121949856
Cs 19.591536732340675 16.699541035553395 20.818302396604516
Cs 18.66365545957891 21.786629849177213 3.1607481420038774
Cs 4.576873862678719 0.7824800481386119 21.25147920298566
Cs 1.9268868429987982 18.20847590685383 18.494137167392147
Cs 4.386816529295811 18.50110582325027 13.521243221388378
Cs 1.7644831393132685 14.079316953033493 14.067529836961805
Cs 15.70908496209143 13.259768990992821 19.154124982096885
Cs 0.9741474041963241 3.017965571787206 2.607556268613778
Cs 15.178070457991636 18.69169618366961 5.868251602285603
Cs 21.07421032541198 0.2672934997355582 20.564032610714186
Cs 15.143138455370842 18.62084229583623 21.94696816739246
Cs 10.886544724690523 18.074359290045066 2.8734230250876798
Cs 18.62372602433834 14.891534584740885 15.04498933243369
Cs 10.623372372677363 15.874115141274878 19.989409506133605
Cs 1.3595572509035727 4.98036688262684 19.704841056834354
Cs 13.675289758234435 0.9444191733738347 2.6789467561224285
Cs 1.9306120706562997 0.8478191962503714 15.718042356270347
Cs 19.183243467091057 20.115473589730613 16.268913475370546
Cs 18.47018401464251 4.810289120138191 0.2701185480283963
Cs 21.676438328944645 18.45335023007692 11.975351566259347
Cs 14.188944193593443 17.97208280870023 16.57217297322889
Cs 15.708681937260758 1.1243680687541195 19.56862332555128
Cs 10.606455121818259 21.33081286810707 20.5863598405714
Cs 19.312145130142195 3.739869830428505 16.554642257535896
Cs 16.4140677866362 18.762570240742953 11.556761935746678
Cs 19.83672218232951 1.2442245375488623 11.861254697017463
Cs 15.049869506212488 0.967048242662711 14.356782310454253
