36
Energy = -25.11482545 eV
Cs 14.531529364107666 1.3634129784116007 8.926404922059618
Cs 22.28565555805664 2.588825293552886 3.6994653516756637
Cs 13.910759632756958 22.554651861988386 22.016224383193872
Cs 17.214468189909887 18.293834385271673 21.706661285477036
Cs 18.422419459065853 -0.9606495577859172 2.740125146598053
Cs 12.980649946435722 0.0014714228248311355 13.784378231173218
Cs 5.101400674577422 -1.0692472675111213 21.337177050112302
Cs 18.31335952651338 21.044324836670228 12.41676113930736
Cs 21.87412994525187 20.482228869164352 21.44594713854855
Cs 19.936883242707353 1.24558382740307 8.474562506922974
Cs 5.1872093844081935 2.5823928535262035 2.8592677984631627
Cs -0.3988259620211098 19.94997206367547 7.084203370292664
Cs 5.432360724447121 19.685964594209967 7.721410312069003
Cs 8.208917975063938 1.6456216961833638 7.229050122772129
Cs 9.307812652078702 0.0024155657281016924 17.85892433236891
Cs 20.55332460575005 17.95151929348104 16.36874057351825
Cs 13.805281129671933 18.61593596927047 3.019021652021054
Cs 18.29746037343384 2.8527265363344534 14.190784646283335
Cs 17.08139713601392 3.5723382993704096 4.355877092928937
Cs 7.374538112842441 22.273479413615398 12.26583745889237
Cs 20.099434280339725 17.346484092506252 3.1530499371687104
Cs 16.960496353377525 19.427158308814416 7.370861697386707
Cs 18.85474774642863 2.159305165020211 21.309454982699776
Cs 22.431271257105415 5.029948458376941 17.350551352467953
Cs 11.197198262098459 19.957721137067956 7.788604084317272
Cs 12.554746632099596 0.8201109184118266 4.0767505167136235
Cs 20.924093307126835 16.968140247579473 10.94082870089504
Cs 1.2011543481333036 2.310499150106599 21.85467881478468
Cs -0.8380118276344264 -0.024896645718349358 16.8091007271104
Cs 1.3389558188683965 21.322375103107955 12.031800341946806
Cs 2.7364955924631653 1.3851868351970387 7.639890511661051
Cs 2.076403592792734 21.02268015628847 2.863355937372658
Cs 7.945790095386495 20.641952081545625 3.150326232761419
Cs 16.92503917716262 21.608542094899438 17.741438863986374
Cs 4.0289052957557745 6.06609794992336 19.86585583589384
Cs 4.215359492608072 1.7321799587848488 16.753979736296124
