39
Energy = -27.31272523 eV
Cs 2.870312136457842 19.776804750225544 15.372079930032067
Cs 22.096200281283483 16.769802054426243 15.500252406458054
Cs 22.221723149432407 18.61979889703746 10.291148917930455
Cs 4.552651859681673 1.1491013366357332 16.515544770211406
Cs 17.58650992312958 17.542929703222313 12.896141185444735
Cs 2.462558107952695 16.51785067751691 19.907245819292886
Cs 17.430245325315717 13.94355782540396 16.933926357276047
Cs 3.793161568766127 21.496066154001795 20.81130473107938
Cs 22.43374951121982 12.638537211246943 18.869576019973465
Cs 3.7767422018088417 18.32554949457721 1.8338665084408905
Cs 0.5466377453091642 -0.12551026812070795 12.37157284513382
Cs 0.6267869727531427 13.907200142681383 0.785602305925123
Cs 14.459793825265137 21.476442191582514 12.608743206274742
Cs 22.375943099178908 20.56748239690552 19.00831918447995
Cs 17.60050727841073 19.00515834089228 18.091655710577296
Cs 19.398898591943638 22.909538461432003 9.242834824356297
Cs 19.500400830228628 -1.055040551526822 14.817246107963467
Cs 3.4930436473661355 3.5013082732209733 21.17953287046082
Cs 18.993833961491 15.271641242375935 21.72614561274331
Cs 17.054083832872614 18.460376842117466 7.682087521517716
Cs 23.028546047715466 2.0005491697871607 17.829107422459902
Cs 22.662075067803897 0.26498288853060187 -0.0012496173053562283
Cs 3.9830422339235656 0.22539409487605552 2.3385657191149507
Cs -1.6900256074674846 16.38068811420364 5.2200754453411555
Cs 13.022844217783824 17.55488521909437 16.28813376423718
Cs 1.8965732540477145 5.085754378650797 2.341806652275985
Cs 22.3725245326984 18.639054136361587 0.5010771465783522
Cs 17.905617419407655 20.940086604030697 22.773283446281198
Cs 13.91650593199025 22.633136933377617 17.670229052052004
Cs 0.9072974735260008 21.183182557293446 5.858008506417343
Cs 16.921427011205104 16.5301076362375 2.7313151643244415
Cs 18.090656654031918 1.6750143947429676 19.748737710225793
Cs 21.84222663239426 2.4960290401721683 5.066429982023114
Cs 13.67038968872919 18.219362756236098 21.712692389974702
Cs 21.23124403844334 4.9499931039858245 22.39043389289831
Cs 19.614110745736355 21.2219905234117 4.175513623410532
Cs 17.558356942318493 2.2216908894732446 1.945699344965251
Cs 13.39474710129977 0.49741554651286046 22.633664225300755
Cs 14.304909441089613 21.067186684193878 3.394996311363651
