34
Energy = -25.3024076 eV
Cs 18.31396316713499 10.25472497826261 8.289198649684813
Cs 3.5410701767372115 8.781100779043994 7.918873168782468
Cs 16.656707573062178 9.755866974758575 3.016790263893601
Cs 10.53736633736353 5.150736534505435 14.024930158287065
Cs 7.781150065756726 9.127676718120505 4.270317408941688
Cs -0.36705029673352363 10.780227064399204 18.54007576645014
Cs 3.3545434249081385 18.58096153271042 6.626599710948851
Cs 1.5314751330833691 2.0155280300544645 3.1160909400333012
Cs 19.153321644405974 7.423497034744945 13.31573046748294
Cs 12.76247078623149 10.545245174531184 7.029183590619145
Cs 6.501821791282868 14.155081250446317 4.7626797215432966
Cs 3.3657290797845767 11.024859958695904 13.283240298910652
Cs 17.923574410258528 5.274180888459809 5.366861506431702
Cs 6.6528185425096735 1.266186291417987 9.898080157494686
Cs 2.6369581739454637 7.277759251963475 2.5312538332221437
Cs 8.251486923662 6.453483494091955 -0.36164315684729953
Cs 18.385537956384614 5.766123711430354 -0.41008181976496916
Cs 2.747779905732123 14.047936433512985 8.918183949044604
Cs 12.29633812028166 5.920687955129465 4.24305207178331
Cs 1.3806715449607612 12.53046555773094 3.882661276960133
Cs 9.017163984896962 6.841976551914612 9.10150481392686
Cs 14.913629355309823 6.131879038035083 9.652754270369439
Cs 8.114035209642589 9.711034163641388 15.174274656210745
Cs 9.012340259370989 18.53489776736093 6.027598433021662
Cs 7.918024887067077 12.037232592372398 9.779554740056554
Cs 3.261151494675849 7.396188158877223 17.20556106460448
Cs 5.702288264069722 -1.4489250243692195 1.7513736831771223
Cs 4.274113119227317 2.7657683562606388 18.71173148307198
Cs 2.0017857235948355 3.644883565223554 8.502872118939518
Cs 11.655574043596593 2.372773965599424 8.299754155888822
Cs 6.662073209163107 3.497633992260842 4.741726425993801
Cs 5.068144826512153 5.56775580966169 12.757372361325903
Cs 5.024081560335556 11.667730711233343 -0.25263390771191413
Cs 12.811869370727702 9.892456097616899 12.411993924922678
