34
Energy = -23.67167764 eV
Cs 4.635117016794675 3.8438658139233848 14.576837910604805
Cs 0.9344363404372228 5.27165895215807 18.788179773286565
Cs 14.611973646627705 19.730680715625574 14.042348013922231
Cs 19.933254404921794 1.4607750591758777 18.320406136750446
Cs 3.2682023803963403 0.637650252179588 18.49249211611819
Cs 5.342115344259443 -1.5975948885344247 0.2920254928582011
Cs 22.508735500155165 1.7020911769960163 4.980850584903511
Cs 7.192644700492659 0.3374715390637376 11.421444489260741
Cs 15.985538206649274 18.210312430673323 1.1267283296142308
Cs -0.142101359552003 2.1731687799754336 13.928362360393608
Cs 0.3739747853674822 19.068466102494867 18.37907743760616
Cs 3.1169946115288134 20.574212732794727 13.464686538999823
Cs 9.060322662359752 18.652494360860885 13.802853234937192
Cs 8.985337546656684 0.4835549587200538 17.079841905602134
Cs 16.795531996747332 0.8119578183328974 -0.15899598854785685
Cs 18.017423036735646 21.93782171141208 4.739605974350885
Cs 2.017248841078967 18.828389140797135 3.787771651831438
Cs 20.687215019874596 4.303644037148182 0.4095146738576481
Cs 19.99904642291956 17.154394354763134 4.754862467940164
Cs 20.73829504061941 16.255524440709365 -0.3298647308627341
Cs 2.9973513944737333 3.0969248780390477 0.9833491878015858
Cs 20.455723160019442 19.770674554016768 13.657713203967912
Cs 17.47499419919769 19.538596122955003 18.81669426863689
Cs 3.217479609779734 16.35297535644121 21.908755496686467
Cs -0.8161414574399573 21.510200528133357 0.5358494443257465
Cs 6.222266507863384 18.632254474970736 18.171511934285572
Cs 11.80160681934606 21.73429001782617 -0.7901968970311876
Cs 17.468973567983447 1.4391025839662812 13.161925149782181
Cs 2.596367011548755 2.5545943640794047 9.53710915130148
Cs 12.020162036283127 18.137351234787552 18.259218947392714
Cs 17.33062242004606 19.451709288130157 9.353223371068786
Cs 0.028878073122007485 20.321768810960286 8.537176306992448
Cs 4.93556176385315 0.11813764316977614 5.636200564439413
Cs 14.320298717597527 1.2058637419514708 17.596825432626858
