30
Energy = -20.28557039 eV
Cs 1.6417919664433787 12.798301523635423 14.98700268812199
Cs 18.873610492020745 19.665054039839756 17.321787765008075
Cs 17.595248019938907 19.531462088725917 11.43423923821229
Cs 17.26403892452633 14.43275637094886 9.506711026805208
Cs 19.678876155960374 2.166697972254736 18.707245647184585
Cs 21.06187697507255 17.077885529911164 22.00778690779597
Cs 18.699742764071985 21.717477572385352 22.828017487159773
Cs 17.858581928478696 9.238775043949207 15.56054020841696
Cs 16.36475836217479 9.372583851580577 10.322284437161652
Cs 16.93156706233106 15.120624174689832 14.832857142094564
Cs 15.946813932625783 3.01465950739107 22.814099700967724
Cs 12.800009666418486 16.088293222374567 11.5268729059429
Cs 20.784570440139774 11.577209036420399 12.106879307722696
Cs 13.734875602641717 19.691333055121014 15.248215773432587
Cs 21.741476800221054 16.752242587542174 12.493146173823988
Cs 16.956839287774972 0.8396356347619276 14.311489912587437
Cs 13.190643306895685 11.412962189334676 13.649455092553525
Cs 15.675019764195977 17.57551202465066 20.095367917772542
Cs 22.008621501317577 21.994572306623695 14.435455498984362
Cs 0.5681323188145723 17.346375111574986 17.219424079350002
Cs 14.715858827767436 12.107306626942737 18.84574443694195
Cs 20.297561147854797 13.281099369501474 18.12601351379851
Cs 11.2980536508776 15.391623973952068 16.914590244894445
Cs 10.455026603911799 19.793062539353492 19.806857813926406
Cs 0.11880026654563973 21.746488794848776 20.084229459638397
Cs 14.71857226557761 -0.1306742268118304 19.131623689681636
Cs 16.758279315620424 17.745488910085378 2.469499766877566
Cs 17.48045474004643 13.229751947244635 -0.14774713638069176
Cs 12.256878485264801 15.823581790245276 0.00401751098523742
Cs 13.222409940516869 21.18894566628714 0.9473800239030092
