35
Energy = -25.33464842 eV
Cs 4.939534133641585 3.9199754329369156 0.5132935287533231
Cs 3.7766592690630287 19.769878348206966 2.3389977576789076
Cs 6.644213685352845 19.921406844684526 18.772104843789467
Cs -0.25834031282316755 3.137625399135261 2.629257066707424
Cs 4.033993909706278 3.505631650813468 16.301838015827144
Cs 20.453790212296358 5.96470870832573 18.755311378733087
Cs 20.465962081045824 19.148873796321666 5.462979073691254
Cs 3.6281111363688017 15.54810222342791 19.515653853008022
Cs 16.96164926635977 1.8330837338120871 6.906689137237444
Cs 0.6167579089956935 0.011804369513875526 19.138072355646802
Cs 19.685989888820654 16.400694505520438 1.1828663666797563
Cs 3.5029075623331285 19.25016507823737 14.592769329454311
Cs 6.640664630646482 14.974446710003086 14.973981525483554
Cs 15.898537978954328 5.3567349633412285 1.0327171136027198
Cs 19.794992177887693 1.828671008737576 14.455377353477393
Cs 16.44651843730108 -0.2568103567399478 1.3121608488460852
Cs 12.515644580492129 1.9539505112569364 4.034611310706691
Cs 3.2442521052735134 10.816210153014847 16.686937759422477
Cs 15.116392866704773 17.695514411302188 5.615934437128807
Cs -0.7539742118745837 15.969891516888381 16.27324512839216
Cs 1.936833868749406 14.08532120557629 12.27716783192345
Cs 19.30030868489825 11.572338241581562 19.692255101605753
Cs 15.498812120260085 2.3390386753625494 17.453701955341792
Cs 20.322736544333175 18.87175902294789 10.81133298674572
Cs 10.663259273594978 3.1298845235696393 20.06267836247593
Cs 15.360484355396576 17.617450003184278 17.450833079177183
Cs 14.745003229762906 14.471945032703555 0.9243514898198977
Cs 11.231553896705545 18.64936679577977 0.7881561593457048
Cs 19.385135885713403 10.164639755892779 14.458229154928556
Cs 15.259309061699398 19.905014801246804 12.250447431331027
Cs 17.070349881918833 14.602242985431806 11.836456320391084
Cs 10.827021459722513 20.056320943451265 16.005492992527078
Cs 14.979854988603714 12.245343480792895 16.547312632474004
Cs 10.434444727408595 14.730558475306923 18.390735421644976
Cs 12.003979850668589 15.490288325854106 13.276723242929357
