31
Energy = -22.71987808 eV
Cs 8.130763543613236 16.665624044401753 6.7688238476157805
Cs 3.9280641439378012 18.947637393041262 0.15590345321952542
Cs 5.422033093446592 7.856175242965147 8.936502577443758
Cs 4.4694253783757345 6.51065450439452 3.7884632758618375
Cs 2.0446701570001515 12.846160718545676 1.7525600756561828
Cs 4.57923438287282 2.5745771891287594 8.002333228478786
Cs 0.8394003188238938 2.4408945265339272 3.1091489125777696
Cs 0.6736263422553838 7.45308297437162 11.532501090890113
Cs 7.3055476222249425 1.5863198374546312 3.6607432138047544
Cs 0.7019217768858773 2.0485202545448384 11.666425372852851
Cs 19.01265263228944 5.373396294113571 7.108096216118151
Cs 7.182500329112854 14.744261915719294 0.9673052726885963
Cs 7.218541224857711 4.524920946391595 18.552044766692568
Cs 8.138116482277512 -0.006479048496131463 11.282422184682602
Cs 11.502282241146613 17.74939736213818 2.710080825169519
Cs 4.462615108908237 9.079350591354311 18.53185730977421
Cs 3.3795382602273847 16.936488705496817 9.880898362443993
Cs 9.325822770474785 8.931338536499773 1.3553072186919055
Cs 9.15315897214436 19.30734258453186 17.67203830570561
Cs 11.779114979740282 1.4769810283931468 7.281761741189517
Cs 6.642566957424524 11.529093368447985 5.199242109389158
Cs 1.4361099616347055 10.69747903344771 6.745223369004406
Cs 4.326467368889744 19.244365843306355 14.743064261086877
Cs 18.281651152637444 19.23057930775147 7.170095445331597
Cs 9.463738389930713 6.104641139406603 5.804410906455396
Cs 19.27095882083436 7.79969169242863 1.9681118253275034
Cs 3.2082474999268578 16.923026184406055 4.845462575537284
Cs 1.7578655815889714 4.18711050822435 17.474356715392076
Cs 5.097744046426953 5.154839747126463 13.554194344315489
Cs 11.918509550818758 3.651310337927882 1.7659105211738853
Cs 9.593910865350756 4.868623340124218 10.967092912071541
