37
Energy = -25.55791646 eV
Cs 20.548432004491993 4.1413114541568605 5.4840136431681765
Cs 18.909206182550076 1.2241817392180687 18.5186544566412
Cs 17.85679431602352 6.456800781543483 19.574353006674706
Cs 22.535952534676028 1.8643969916248468 0.1446490659865965
Cs 19.43114582997651 5.228508208730698 14.613253133440981
Cs 14.478897953013046 3.882867658106639 15.279320745345068
Cs 15.579757438959556 16.912220733498863 19.252678794121728
Cs 0.5138410615518331 5.366595515087861 18.645245467734537
Cs 0.544568611525293 14.79495137244306 0.8146500076868363
Cs 3.764647926202864 0.9464594685982524 19.03318595826762
Cs 2.419948439358682 19.03936320444635 16.090831035890055
Cs 18.08467187709078 0.29210569848574414 13.00072218277753
Cs 2.410241099252484 20.117231674669924 2.6782970323747564
Cs 5.088813447315582 18.718410160775306 20.769790843642454
Cs 2.574917888664392 14.476507648184741 18.384238071933083
Cs 14.339235056224299 21.349239846545526 16.773281611632385
Cs 5.645988509453745 13.930768911842629 0.12830187313330607
Cs 17.471441950336235 3.624022836452926 1.3374272406827405
Cs 0.6723566445472089 22.398878511936573 7.25452408726971
Cs 4.026077760837035 18.232823582864405 8.173820176578918
Cs 6.056032925283389 9.589112346456899E-4 6.29321007787321
Cs 21.759593378360258 19.344948532763883 20.64129111249439
Cs 3.764849508625431 14.23597847340037 4.962132220037068
Cs 20.004150652448914 14.299286726679485 18.878567733655316
Cs 0.39313170236355977 1.1888743991604998 15.018081783745178
Cs 6.714358365392246 0.799395605818402 1.039939373377026
Cs 21.746891063821973 17.184255764185554 5.634155426391431
Cs 13.563869880726319 3.0694946861398265 20.391867061463838
Cs 16.103029601949213 21.18930458709149 22.125287642797595
Cs 2.970116169002042 3.6415394120123006 4.159151263565446
Cs 18.26305090076289 16.757567963344165 1.342007420728382
Cs 19.339684038780646 18.656552154345526 15.828393913359411
Cs 21.87740925306859 7.104416910839106 1.2001279880159048
Cs 7.2303460708694836 18.113084756325275 3.493638884341072
Cs 19.482254422199098 21.601624263536717 3.4924338368363834
Cs 4.5610966250765514 5.493857937718563 22.128313863171314
Cs 9.358807940350577 1.8671316642657556 17.505770994297656
