38
Energy = -26.87330137 eV
Cs 16.515187579597445 15.739269443602277 2.6449932096320574
Cs 13.495603695618518 14.582327410547206 18.763662842411303
Cs 11.352315744028447 17.986173569998286 0.3977382217068936
Cs 20.59230960676654 15.965255259635398 6.4790816486624125
Cs 16.908128876288693 19.56673757669591 6.502434394826111
Cs 21.548138613732384 14.96055792176393 0.676809814890817
Cs 15.73326587202113 12.813388633971018 14.161452756938456
Cs 12.448688800244906 16.923632317970693 13.2221811803816
Cs 18.76885287197115 13.373271698960027 18.53702790147985
Cs 14.939183275250116 21.554356944928273 2.2551970117990723
Cs 10.838718240749467 19.14945695632314 17.588436459376357
Cs 16.62262867643289 18.4518982570902 20.614963886233266
Cs 2.786811798358647 17.198178790780908 3.97834392020838
Cs 0.12831858831916143 20.90398237437084 7.021380603937075
Cs 20.524087859312626 20.198419422146706 1.9883675670586356
Cs 13.744902009339992 1.0616366573863516 19.558986568374564
Cs 18.36474817933463 2.1044632935291827 5.6614853027499095
Cs 17.04907091662601 17.971442086695497 15.596014338098394
Cs 21.67248414640017 17.968498959329974 18.255918153237673
Cs 18.085595498927283 3.1670436881179143 0.13950100921048073
Cs 13.896021234751021 22.091125879302503 14.290038016506262
Cs 17.335480661943517 16.894335131980554 10.710980531313691
Cs 20.77583006310943 13.871297661315634 13.50072368638616
Cs 19.040375690620955 0.12951843313384548 18.14542276423502
Cs 4.457083006904989 21.93253106214008 3.0410162133557685
Cs 2.2729053640419523 14.043307175702251 17.19637434389999
Cs 4.254702603382223 17.44774662241836 21.149597220061352
Cs 0.3950632274395545 3.1573617988764484 2.7405254471676037
Cs 1.7116824448443413 22.19215516091066 20.615432037264533
Cs 17.177809240893403 4.199505015256396 16.11866175251766
Cs 22.103760920426417 18.881800041579623 12.691705151045124
Cs 18.371516452247988 0.36023206780793704 11.494459164059256
Cs 4.118225535480403 19.796745575809524 16.12039278890117
Cs 7.3735837998499365 21.864353514265932 20.380155164604037
Cs 0.009980889008692293 4.771671315256123 19.287632050337283
Cs 0.4220547744567371 1.6960653015351093 14.66412208575251
Cs 4.745205691063886 4.21601761204058 0.11459124713676629
Cs 4.752847271690334 3.143313178245133 17.183292124734617
