36
Energy = -25.65199436 eV
Cs 4.1692758247174835 17.263107308746985 4.284165643187161
Cs 9.183946098592871 18.12297272004921 2.1354882640022548
Cs 8.489394030446858 0.4948333183461497 -0.8071398060586019
Cs 8.162430949989671 5.097911022864535 1.5340524599086058
Cs 19.73338017803016 16.750098830940527 4.519064439834419
Cs 3.5894130499068044 8.423720122389005 0.011259679933681987
Cs -0.694967120304663 3.473706262711885 3.17801507832202
Cs 17.690780580291516 17.560821124105182 19.843974055141913
Cs 12.474447954415691 0.6978991570230039 2.884869883649806
Cs 20.428454861898306 8.512875337202512 2.223370151718222
Cs 16.313507995112833 4.680272515046118 2.644305887034949
Cs 1.94967750030375 5.424799296576363 17.605310155636808
Cs 7.4508728087300815 4.988977546683762 18.411393588054775
Cs 10.799481728987754 1.1068990567279355 16.63221431720059
Cs 4.1758483073388435 19.39884345769135 -0.7153085484795718
Cs 5.828622803371696 14.117845791562733 0.00255338365398126
Cs 0.2536648299644679 15.9184604077516 -0.26793354626354554
Cs 14.687166715187045 17.839337707266676 3.0418273999875254
Cs 13.051552481640195 20.2035105880467 20.41511982519367
Cs 16.614630234349665 0.8331012358047277 17.471311196031863
Cs 15.91518279691783 8.734593930691146 20.916371582487503
Cs 21.31869971550092 10.106317746263997 19.41885140911108
Cs 12.613108781002436 14.927717890045498 21.03832703401655
Cs 0.4528660177902229 20.65157027883588 2.7692963114821634
Cs 17.715391391851707 -0.020658315596319157 0.4102970802777413
Cs 4.997291921007425 0.4346336947823 17.17797705679352
Cs 3.205093651046855 2.7657738436367865 21.894625848297842
Cs 13.136970995481729 3.853524615779128 20.505282797577287
Cs 17.72846702224049 13.260294943588399 1.0892162414496211
Cs -0.2773920855941812 21.88824456609539 19.12696812903097
Cs 19.657320472310445 4.695414786843685 20.34445947279737
Cs 5.827916147164165 0.1388078848333071 3.74277117416645
Cs 17.71004577375062 21.84618926472885 5.402224977871231
Cs 8.55010152456623 17.974225208857067 18.725131165085894
Cs 1.387636624802131 12.586842777211134 3.5879892541398846
Cs 1.1131250270664959 15.646332135625256 8.033486243302892
