34
Energy = -23.59106012 eV
Cs 15.991959555644375 19.68464169774312 13.626562940474365
Cs 11.744002815913632 16.524738989916898 14.925674582185106
Cs 11.756283837070807 21.401948035973017 16.459913413815517
Cs 20.21926855626355 0.9388221452146086 13.20212404631573
Cs 3.012324052451319 20.34837853436908 12.806123575643136
Cs 18.498932373755203 21.282114818951683 18.64099884823104
Cs 16.773654088941804 14.412780476640314 15.077963626168662
Cs 2.7133594086243527 3.0798236577865956 14.134927360864422
Cs 10.315536499476288 17.55321304132103 20.08294381619192
Cs 20.868248563188644 17.832218220252606 14.282925598133126
Cs 12.553712042708318 12.543543078979997 17.9708006524774
Cs 15.440612226960285 17.423719632458216 19.179658475488996
Cs 20.75286902521108 4.3598060013328475 17.32539515566113
Cs 15.75089578520155 2.512060063314008 15.974487416278608
Cs 13.27615951242504 0.2474882138126408 21.151686941303574
Cs 6.346512824350685 21.14603340522816 17.568310984708003
Cs 1.2031706434001757 21.51582643666941 17.826686521946716
Cs 13.199576872360293 13.63431505079231 0.7309639757913078
Cs 3.590447191566698 16.650652864799916 16.64385430897501
Cs 13.594876701416355 18.59866361241795 2.3706999545813394
Cs 3.7037378824677782 3.815005936631625 19.25708197907883
Cs 17.32790672667798 12.02189233616452 19.953003031115852
Cs 16.915882189196928 3.830712394255398 21.010077667093896
Cs 20.88068459170118 15.727298716498284 19.009606865139908
Cs 21.91863302165547 2.633330716108407 0.14038752182924227
Cs 0.1454502219355753 19.405955271696175 0.2756129266954444
Cs 17.938413768614776 21.516754614658737 2.0099857140128394
Cs 18.085312030304785 15.887440964126492 1.4732872435856461
Cs 5.122150320411345 17.296109985739026 21.444132180211806
Cs 1.0605590750175542 14.389941353001927 1.4711987349740745
Cs 4.6112171889256155 0.10655286786944464 0.6622703641303939
Cs 0.7065695947730282 0.2835159863538838 4.773985766415585
Cs 20.99326034969843 17.568758406065847 5.4394016591476655
Cs 3.8030127681652846 18.10364853356469 4.3709198113199745
