33
Energy = -23.55374887 eV
Cs 2.9899531453117656 0.5120017374509536 15.421340801366611
Cs 0.007482955143493528 18.414049947834886 11.775049193368526
Cs 18.52949360581507 2.0794786422412472 14.492175751864139
Cs 4.684176572583065 16.32712184047771 14.122547593880892
Cs 15.62292782140585 19.933163526301975 10.138791377853483
Cs 17.07176581578341 6.167713197029805 18.664795065318057
Cs 6.270582975679328 18.426658746570457 18.683178344174177
Cs 1.2872905475423382 5.7355981383481245 16.717258075875087
Cs 16.82335741761259 14.637450443504441 10.830804756997898
Cs 0.1255042511201685 13.447109901650013 14.001966389822169
Cs 4.559958740522701 2.345693150061137 20.364458095455735
Cs 13.080623658290998 1.0210165800025996 14.611197336982935
Cs 20.397391359627623 1.4286026707165254 19.736724411550718
Cs 16.846110271254272 17.89152826611151 15.390473049659981
Cs 0.7400707241400771 6.524309809006962 1.0559492425816273
Cs 4.060212965114681 13.594141187798208 19.20113519264607
Cs 1.6655245269447523 2.1057786860942858 4.035637037881674
Cs 17.24575454099906 3.668908777085732 2.883354711621883
Cs 15.402880463907588 1.1461603811410934 19.433865678655007
Cs 0.49839544086010484 17.228504277317796 18.034693069691635
Cs 3.1144220551918473 18.28154890343121 1.9525115803125082
Cs 12.13768471712454 16.45247351425465 13.685054644721934
Cs 16.025725001708523 12.302273477306558 16.00893761089178
Cs 16.057776149570085 16.338668879483215 20.493258504547825
Cs 18.816159099486466 19.313722074234626 3.532807069907751
Cs 11.508900200414477 18.824808655545652 18.808358196650662
Cs 20.246832305353053 10.945954943648502 18.791936239941645
Cs 13.60258695233296 20.091573672596027 3.527470732959145
Cs 20.234735385483255 14.217998675308928 2.320211819915439
Cs 11.189750347015442 13.575218910789593 18.02536976591147
Cs 15.765481839971988 15.137264236892973 5.351253482091166
Cs 11.245441123876772 15.190435246715799 2.0741324797870124
Cs 15.538212224968397 11.19765607943798 0.7740244665470937
