39
Energy = -27.999967 eV
Cs 17.274826670231096 14.478744463517431 11.43196495908346
Cs 0.1332121648277386 16.2166022883101 11.83298753056908
Cs 17.428382010091866 19.927032412064424 12.078553029124794
Cs 13.306904348139387 16.88355252231845 14.347779900880804
Cs 20.206715727606028 11.169213981277743 14.865754978175122
Cs 19.022236226999546 3.027594939494295 15.562045632927656
Cs 22.194469059174725 21.120857895757304 13.83101036775443
Cs 19.151134811214405 16.41620023997625 15.937412580375613
Cs 15.292785588021854 12.494573703756572 16.625291348984213
Cs 2.2681453280111197 13.695300298125828 16.24333604814208
Cs 14.232577601074588 21.810236691050715 15.949613412797142
Cs 0.3831071002717391 7.583173306342786 18.467106512617274
Cs 1.746989025708411 1.0642024142378756 18.06965150576212
Cs 10.112355184528454 19.2834927436864 18.603228147565872
Cs 17.55497240768728 8.003314611907278 19.151402785461258
Cs 19.97007668133235 12.880129857396815 19.94288007151347
Cs 14.489714982242438 3.97298870308744 18.48782219784194
Cs 18.896626398427692 20.94254502273477 18.398216606524215
Cs 4.40454603682217 18.86274822287207 15.700966992790518
Cs 15.025403566176628 16.90524916558169 19.516945728412054
Cs 0.9264919359563304 17.698216676729086 19.419195138631576
Cs 6.125183304685405 15.568171720353964 19.80858814260541
Cs 19.921913369702285 3.068726445316728 20.856960548325997
Cs 16.085413626340348 13.022315515148035 1.1750878666058653
Cs 2.5144713711597872 11.844165004271817 21.550163371431925
Cs 14.478875385243736 22.18814502848751 21.554087122765658
Cs 5.578702141026995 20.732445317963215 21.006861475589346
Cs 20.83367983440011 8.227832171481346 1.0510424793954014
Cs 2.637179520226822 4.392026466756888 0.008241724632495541
Cs 13.566944017682463 17.80394552837985 2.1182013463524236
Cs 19.048716790008413 17.931346190689084 0.7863263169701044
Cs 16.221328606817966 4.780456498439846 1.3457962933432435
Cs 0.9131982123216554 21.650532317638973 1.0413353576191946
Cs 21.14210514282597 13.559888947870103 3.1968500495310117
Cs 3.052741548613362 16.627110157966907 1.85927042320736
Cs 17.290918545909914 21.929590616623376 3.8475691222361745
Cs 17.148856298460075 16.466143634962933 5.968001974512876
Cs 21.12930832077054 3.1927704457418984 3.839098395725558
Cs 21.805815848041643 18.999187399066706 5.569138163953293
