30
Energy = -20.1464938 eV
Cs 20.519386127440466 12.885141943932707 11.11319965263297
Cs 16.210411650133377 21.03223416129079 10.31416419322025
Cs 20.075673655965904 17.696989637548487 9.482991186659508
Cs 21.564527097697116 20.875188963799275 13.248950446192941
Cs 0.6621985855513153 16.875115912255833 12.306416468967907
Cs 13.206376139553878 14.577733290637441 17.2175586189274
Cs 17.020268181067053 11.786076964068268 14.866495071778363
Cs 16.964572208743384 22.650743058173166 15.64431696229891
Cs 21.838310815071118 -0.2771766964218721 17.677360658438626
Cs 1.066097737687348 11.635522941105398 13.243635487524909
Cs 12.439956682073271 20.030687221938408 15.124679424801686
Cs 1.1884869853943714 19.558176352325024 17.147083684080105
Cs 17.022602450916246 17.00464908638155 13.928953174595545
Cs 3.178624878221872 14.76682655031906 16.774708068196095
Cs 21.700815747214982 14.599945947876348 15.802798088645947
Cs 20.210554991843992 18.760775151609998 17.943898736756783
Cs 18.098779375327716 13.659349865209352 19.689594724591103
Cs 10.34860044711163 18.486457151011074 19.700072109559677
Cs 15.54687913666661 18.62083820270558 19.18102941151247
Cs 12.722391152889418 23.3798167750926 19.375494175642896
Cs 23.527253694887833 15.706852717966738 20.69702244594635
Cs 13.802957486793646 15.136429039645773 22.760944549366297
Cs 17.824863480108387 22.896009702706767 21.157734283523794
Cs 22.650407344596815 20.892751146396343 22.089586275293673
Cs 18.86379066962047 17.30091849376436 23.409153931188392
Cs 13.539257875811392 20.220677360072862 23.965373362617314
Cs 18.62656373659908 21.67897725540524 2.1426096797788894
Cs 14.604835607909806 1.0626584399922478 0.4092244061275954
Cs 15.68095964014465 17.41548696637292 3.5960230427101187
Cs 14.498990371997653 22.51173508300803 5.194321633466511
