33
Energy = -22.24579628 eV
Cs 9.833100983391919 0.7907400698453835 20.691658927002358
Cs 3.8089865166913097 19.49794352577869 2.8583159660629307
Cs -0.37059416783252214 20.682160242759892 11.258534136665366
Cs 22.249036539393114 17.40387263960745 20.024472877114068
Cs 15.30944142208639 2.3359041215655 21.74160915192291
Cs 0.7837948838544888 0.5331092287067165 2.499980025777727
Cs 17.13344537026349 22.117174585961386 1.975769472418966
Cs 17.68181942815468 17.00868085681503 -0.006961888695303625
Cs 20.545352540823306 2.505705591863521 18.051741044946567
Cs 21.188839165236644 4.30766810777224 4.836468381880703
Cs 1.8172987772973164 5.510974303023729 1.1781496220006524
Cs 15.830646463235214 3.129056940978475 3.6812736408863374
Cs 2.204725912529856 2.3533333664029974 20.65890802770271
Cs 20.306542968499016 2.9950487916596433 23.452834457869347
Cs 21.890779488222307 19.77345297693363 2.01496825421182
Cs 20.01682687633274 0.8079176429914489 13.09286652654339
Cs 11.666013030843267 22.77805555363557 2.3535003039636586
Cs 12.711585757223164 15.716678137354126 21.64871410889808
Cs 3.547206490610629 15.860087223398013 -1.1770349099175565
Cs 6.300706450392666 0.547047174509854 1.2907343606709412
Cs 19.905074342319548 21.851182156589363 20.954882579050295
Cs 0.794073608289455 22.392063900099775 16.65249155021685
Cs 22.508166077366027 14.765834332071735 1.0282107387651223
Cs 13.749979819377456 20.93709215888761 21.562641879911027
Cs 20.26527608039946 19.731138140065553 15.582813940610427
Cs 11.254071857252915 4.313357190062749 0.9269532061682674
Cs 16.622000413558194 17.768105311429398 18.581472513332645
Cs 8.270649669248055 19.499025364208386 -0.6647393025326809
Cs 2.487786983670909 20.971137180781234 21.603060744416823
Cs 16.20709934324665 -0.520144224082472 17.150007308406913
Cs 6.6092190074959465 5.102434060375581 22.108819927827394
Cs 19.75918243820213 -0.2665705317880602 6.64992312522215
Cs 8.248972110806962 14.137247560383049 0.018898957197435867
