33
Energy = -23.3316433 eV
Cs 17.922201817587524 6.427554543268704 0.1275222879489187
Cs 16.465307558887663 4.2756939912492875 16.60727976438607
Cs 12.837595463368425 3.33373443560489 21.137666554708872
Cs 16.182928941705924 3.4700142708049495 4.292003309905797
Cs 15.259744357280075 1.4503888143468069 12.04837371398191
Cs 0.2700611564741445 3.7508476917000437 18.58697604741482
Cs 11.936470163612997 1.3023606088233948 16.19693353649576
Cs 0.005366118164828157 3.0594993938690416 2.809525481648952
Cs 20.380625405190393 1.3087192737529318 13.916384585286803
Cs 13.246397204215722 20.73714813761785 3.3201815257545526
Cs 17.42318563324556 0.9069078012905677 20.964068540464922
Cs 4.537521201700357 2.388766103965757 0.12653191525537758
Cs 12.335485044030492 18.870212181870503 19.534234687282584
Cs 13.12728372678844 17.915625175009417 13.785401644454254
Cs 17.266190306515565 19.407258717845405 16.465571326843627
Cs 17.799953926041148 18.601278000876327 10.582687286080477
Cs 18.871569565941517 20.08045873793036 4.67240123635353
Cs 3.757362237359828 21.174957731501745 16.73210000864953
Cs 16.524231865873734 17.15798402908128 0.7893442458044766
Cs 0.7285390485097254 19.535938133633525 20.6263206686523
Cs 6.971037385803675 19.26534474476917 21.284244534962582
Cs 14.593702948443568 14.194539741163188 17.91443218431756
Cs 3.0647357140121545 19.937558908454225 3.871836082480485
Cs 0.6547586955404934 17.65553126226133 13.921589032871761
Cs 17.5243050759111 14.424474603463711 13.537295932775615
Cs 19.96364653918129 15.226374379011487 18.621019282771506
Cs 20.877120462633915 15.26371842525277 3.1921717159914857
Cs 4.152759428325423 15.926110376685576 17.668001808170292
Cs 17.517292361633125 11.776419048731627 0.6629879532620309
Cs 4.1446205330174015 15.122869860568532 1.3246369062840033
Cs 0.9915590291351399 12.312963082863284 15.095401017166429
Cs 18.050025553827542 9.882164438665374 16.87908063733029
Cs 1.2034816446605647 10.97254267939769 20.47327643111261
