31
Energy = -21.66488344 eV
Cs 1.075290066476456 20.395881467831263 6.876979820743308
Cs 18.066137277858864 0.12242642802866734 7.260415200314484
Cs 18.760815088408282 16.95700452038598 6.55917989856343
Cs 1.2142807249251877 16.6984481734932 2.9086349635215893
Cs 21.697352258992353 3.046206687373157 4.185789920522449
Cs 3.5383880405330435 21.367939187284794 1.9449635830447545
Cs 14.913254898335946 19.6947884172524 3.5489049114061015
Cs 19.69795801814356 20.67946552497345 2.0854569357426653
Cs 16.21151906455779 3.195086179937744 3.5003271473116353
Cs 21.471340405676077 15.617825416106015 19.829094491315573
Cs 17.941216527352154 15.19183023327986 1.7556300313735842
Cs 2.599053873787895 3.8374184044152324 21.637538939077036
Cs 4.358052775497706 17.531216223532745 20.54440978296907
Cs 21.63465537436097 20.932511387735996 19.444186379914715
Cs 4.37428687902704 0.2629896722436953 17.932484803793635
Cs 2.5448491918872302 17.457105836568758 15.561434765791939
Cs 19.276386428071856 4.073503501440943 21.41793143576585
Cs 0.004258323260175879 12.8882310997628 15.217253211955637
Cs 17.26885169878184 13.026815265075822 18.207793779499877
Cs 16.174273573395844 18.218559147171064 19.87808444135233
Cs 0.33083754657447406 3.832845184319452 16.76559454239716
Cs 14.500114766673605 0.9677131911575629 21.1138101137786
Cs 0.8386235867914975 21.88824652811133 13.423014399568405
Cs 18.829881457700445 18.02919419419458 15.542239052285064
Cs 17.663982279891638 1.5065781212137572 17.129495115785183
Cs 17.402856600677413 13.43106314278869 12.861954317744193
Cs 21.10653635473056 17.375965928388272 11.105286468931473
Cs 13.432451130295684 15.626022606869059 15.599842746027841
Cs 13.528236235043357 20.733894946114848 15.683913374496681
Cs 17.821419877153755 0.3596349294862957 12.244958970024813
Cs 15.486125884740384 17.95334419279888 10.958080660929353
