37
Energy = -26.00631931 eV
Cs 6.166463369139801 16.651104882179986 -0.01947763380979906
Cs 2.278729125652709 13.228844515585731 20.05432532442327
Cs 3.215536581026591 13.541453671425051 2.9700899762549895
Cs 3.763730777517998 18.42828145950382 18.171521601503606
Cs 4.013680223660539 18.599271733669408 4.408941613339725
Cs 2.9314294384907282 19.63760565184641 12.848354995720234
Cs 3.888992761269918 21.887920102962024 0.11113060849368477
Cs 0.265629614004487 17.376865919217256 0.027645638842739285
Cs 22.176721576889232 16.012240960041392 16.28745246838482
Cs 20.83691695699987 12.570526509412987 1.4931161329875346
Cs 3.7313713261152137 0.9429865659048873 16.99495719008032
Cs 20.76140365545724 16.847657260370436 11.038685417881364
Cs 19.36189614900135 12.421973346117586 18.842057793703702
Cs 21.76481980271231 16.440455224954967 5.623128269313378
Cs 1.588043681158767 2.6529030292956075 12.595987455111597
Cs 21.640746872399255 21.766896162120638 9.334350588657797
Cs 21.765982982361876 21.908167156285735 20.00586898884936
Cs 22.028141722945 21.438477751103804 3.556610266495515
Cs 21.797028903491526 4.122570572727488 17.36403629102924
Cs 21.086332487805276 20.893114731698706 15.07978655095579
Cs 16.98239046753639 16.3184949335543 14.829414236491681
Cs 16.849004503266137 20.32225462902478 11.218603227781603
Cs 18.614020580890593 2.727481625716228 13.298971165095391
Cs 17.218600959520536 21.75654893900618 -0.0054160336828096185
Cs 17.367698185254227 17.78919520861477 3.3331967916460123
Cs 13.888223417278962 13.899363273359212 18.43576967034956
Cs 15.888224176379177 13.28210636118633 0.6893392995294805
Cs 17.889756766757113 17.38199864328532 19.928319297790406
Cs 20.56050483517335 3.410385219797172 0.847544780440283
Cs 17.50256161405553 0.6623719326383994 5.48395321390205
Cs 12.392578043551865 18.61741275314888 16.966464498844992
Cs 16.944158055151984 3.8719392931762733 19.23420856177584
Cs 16.363917185690497 21.797682634468558 16.734296302748586
Cs 12.925584002877304 21.381623470643085 3.3395348253631667
Cs 12.679270663784466 17.614126113814883 22.2384624276721
Cs 14.834223280946016 3.61282125070112 1.722112986653591
Cs 12.404840623686505 0.28803143072932896 20.460261726746612
