38
Energy = -27.81701731 eV
Cs 5.962817651969238 16.997545091648103 1.1624835072563748
Cs 1.311605118198802 3.3155882572502673 4.247613452576971
Cs 1.571609916627714 19.109878562397636 4.764160281143011
Cs 1.2107376125333285 14.334596314858937 2.1171644105059664
Cs 18.554079596956964 1.0520018634181938 7.169467510540903
Cs 3.7076582999214502 0.5508624464203081 0.26195757742246806
Cs 4.356751626115601 13.413106427838915 18.589003564370252
Cs 7.592176899682914 19.763245463513382 18.057358896442775
Cs 17.788369953682704 5.577988718807202 2.913200074807732
Cs 18.157542904567 16.711141591594885 5.851441169366443
Cs 17.655546827313646 11.540807664872688 3.156685193699792
Cs 1.1812801777323407 17.891334503515377 18.83571716619295
Cs 20.2937704699778 10.997531099340689 19.369339775315392
Cs 19.242404899621082 0.162024953607384 1.2054808432713577
Cs 14.717812682310143 20.534641535968888 3.994230931539829
Cs 2.6477771924656794 1.2094825793764388 16.178717880740138
Cs 4.562013020607202 17.243789342076173 14.631434788384134
Cs 13.39257165261819 15.230012475528204 2.769166087304454
Cs 0.25167619151437004 4.655999370905905 20.16596479340334
Cs 17.919184289987683 16.315094792854207 0.3881718207535971
Cs 14.849907345730617 11.840591826461933 19.616092830178854
Cs 0.3810216302252189 13.657292267368996 14.85727258009167
Cs -0.11766410018999748 6.758898410425788 15.380707399931193
Cs 17.130012185332465 10.48727462951615 14.580597205766816
Cs 14.341003831777524 2.792644987636513 -0.014452908031935692
Cs 18.4286828017319 1.2059095132112705 16.83527832483783
Cs 16.699314765978453 6.646683618550388 18.44957829542584
Cs 16.85675579162576 16.327443030714985 16.43119753591718
Cs 13.371244331752921 19.07625213808025 19.883004416833412
Cs 9.94851339560884 14.74448182146857 19.241683506119816
Cs 20.568515579190358 18.430985067050024 12.602007453397771
Cs -0.00695844288835978 2.407653326024906 11.688651864812424
Cs 13.144726112112755 1.9808192484266076 16.043341488983444
Cs 12.349133651793325 12.740215853183418 14.858376744328137
Cs 16.070892644295093 15.016075063848993 11.40134497220701
Cs 16.69001609520003 5.030305791493505 12.883934182720969
Cs 11.662078510377265 18.036778685237795 14.742569040585206
Cs 15.786802949696169 20.70468593549941 11.801597840778262
