36
Energy = -24.85060786 eV
Cs 21.610079883524563 1.3730464644233813 16.02161275648124
Cs 14.773378562714402 18.10843623923684 16.485190022487483
Cs 10.854537454715398 20.062743942688986 0.8126234876917994
Cs -0.9218227268113529 2.8237708511937196 21.031289989723955
Cs 20.5993948394557 16.640390458794123 0.703416990680623
Cs 17.04590996801628 0.6655351492378289 19.50150257466736
Cs 0.12381048770766515 5.791070730496437 2.871632187698238
Cs 20.412145426376508 19.773230698041658 18.61411201929042
Cs 15.648901368876361 18.49414622625662 21.49678643482248
Cs 3.557794676565532 2.1991760736441925 6.040264834537742
Cs 2.7164330869577547 21.169398552146582 15.271463843397816
Cs 12.101304610926997 22.276308833521504 19.090449870735007
Cs 6.39039901775075 17.332837866867425 -0.20556801751021675
Cs 0.16460636918845195 0.5412134730972211 2.5295408598313567
Cs 20.16299960277061 8.671343618604713 22.358163895291806
Cs 14.04318441265171 0.9680124765919016 0.7709897314990806
Cs 17.265882032197528 -0.8186211350447687 14.499324539609514
Cs 19.208235310480166 17.314985309111755 14.138259166793596
Cs 18.30783302336718 4.1325014922516345 1.3291147126558949
Cs 4.125386803272123 3.1888433289261386 0.11491027810779247
Cs 1.7927766360553448 20.9093564905219 20.879512448252058
Cs 19.54246424687561 14.494299372663134 18.879475394907207
Cs 10.58520923745425 17.178873197507833 19.582280878348183
Cs 6.1601742006252955 22.11864542285933 2.463016701570055
Cs 6.82788622785857 22.16600494661187 20.290111822151758
Cs 21.14991420918698 19.81100207256397 5.494451410746462
Cs 1.740557006387039 15.322334070998025 21.133447132032327
Cs 0.8165185251556395 16.34623700889865 16.081167386772137
Cs 19.19766727894062 21.57757824147228 0.5326515505640639
Cs 21.637992864442005 2.2121740753121366 7.541497381472361
Cs 5.624044841482721 17.575063700056557 17.72760806226083
Cs 17.47422103841476 0.42674384409523664 5.038722918099498
Cs 2.307280992300147 2.2409901985198983 11.799332497332953
Cs 3.317019472801248 2.720035319163332 17.862994038150834
Cs 18.290997587068272 5.432357513838586 18.58064413918171
Cs 2.142297648285618 18.64931824019679 2.527390425032003
