38
Energy = -27.35750883 eV
Cs 15.179264620459998 5.827375503314153 15.476370339883553
Cs 18.627051995243807 1.3536469097379686 7.889997265217253
Cs 18.597559650820642 4.622405115332869 2.0313257784486196
Cs 14.139582530168886 2.319526557958341 10.863285389211505
Cs 14.522824389164814 3.2680845371592153 4.870634711282624
Cs 19.0113445693463 6.804622780804505 18.874199022113512
Cs 13.975752027933142 4.619322591285225 20.78614616782046
Cs 19.398865781519955 3.5015407316244405 13.307970078581217
Cs 13.334677700362468 0.9465043865145137 16.54246955084902
Cs 1.1035043025493843 2.415628619336192 4.750848179486611
Cs 1.6122345255481263 5.5880918410075635 0.008181584204444124
Cs 1.2194169540444033 20.24297898997706 8.705446711271268
Cs 14.501046931345028 19.965545564348925 6.2504857093690855
Cs 2.0333533255594687 2.996396249900597 17.127098442044318
Cs 18.96687598008208 20.944272878403474 2.6194476597366947
Cs 17.133032733493526 19.808549898620303 12.078435511556469
Cs 18.598876778999337 1.2278814160823963 18.743198988737024
Cs 13.959150351756952 21.177549245233593 0.13360515940743725
Cs 5.858611485384754 3.613046321874996 2.322475471240077
Cs 2.4215005170389268 21.6025974494594 21.577112181788745
Cs 15.637380865050824 17.823940954430526 17.65770142318515
Cs 0.13138590071596287 20.484869678190623 14.421814823287573
Cs 10.07837634500058 0.809702347416654 3.5330359306155374
Cs 18.870497304013124 17.280084621522132 6.8024502747441815
Cs 5.289387815683756 -0.9741695393619897 5.047871408195478
Cs 8.58849958560387 2.156018550361165 19.834192688082272
Cs 20.76888680523314 17.65383741738011 19.15505601473891
Cs 16.321068869266067 16.54098378026416 1.3835331915312297
Cs 19.14577593068425 15.08660170021602 14.128895315794162
Cs 1.4746648607186976 17.654322863957088 3.3968956983272367
Cs 5.0085735286756154 19.99576993490723 17.142719168463344
Cs 17.129970514278064 12.518579641310996 18.745855683675515
Cs 20.66017074415015 13.5950653989926 1.0902393976010223
Cs 7.457825936795807 19.037807731556658 0.2671712420090812
Cs 2.577759994724536 15.765815869604916 14.958619643181185
Cs 3.6720837461621536 15.623419605416277 20.378158987859642
Cs 19.148961993364065 9.513650392787785 14.248963994665589
Cs 0.6759673010706371 11.689186650941416 17.949146399663036
