30
Energy = -20.71649214 eV
Cs 21.221768511470067 15.667203186614799 5.6925926701873975
Cs 17.931127003525226 13.781866802671583 1.9414011733977674
Cs 0.977684698865349 14.73233449234539 0.2727466388421383
Cs 21.04904697868318 10.024704969708681 14.587527148234342
Cs 19.542569157872126 12.345920169586307 19.03732968603423
Cs 2.3317422628107987 13.910607248109875 16.919227576400317
Cs 19.54706028108357 19.00930935745168 0.9830202157341097
Cs 17.334886898996523 18.995440499534347 6.87178166722602
Cs 2.3898654886729718 19.12279491886749 3.140195299277658
Cs 1.054021145560486 14.616043129261461 11.524762298128117
Cs 14.575306080083228 17.62499877671523 2.74097407629667
Cs 3.707483817787703 18.83381186261529 19.79921376002184
Cs 18.55517172989647 15.195865928521606 14.245885517126167
Cs 3.493637275274538 18.32298988424175 14.24448071284597
Cs 16.10362387799502 16.515101427874686 19.55865489584112
Cs 21.023227068814535 18.166280610848194 17.77650493869363
Cs 20.78965071850516 19.937875570417567 12.087784301898132
Cs 21.052786003855715 0.928807755306772 4.6861281107757105
Cs 16.22027103127072 0.705516167966874 2.759345370750396
Cs 13.515165765820216 21.06469160092519 20.486158730334033
Cs 1.2509285605388842 1.1315921794457706 21.7301865818088
Cs 14.175469827131236 3.008163096218245 16.367292453669755
Cs 18.45353166295235 0.9941072267175132 19.394225463503943
Cs 16.24809065782356 20.22487530939628 15.280417817305228
Cs 1.2374448912793858 0.700598874539194 16.106513098712448
Cs 19.681620951861078 4.820536415793566 1.0941304400072835
Cs 14.620986986602217 4.408002622471316 21.4071879842096
Cs 16.78435292017306 7.441105263655341 17.599152870043746
Cs 21.75136033860282 5.485351657272587 18.16796807641397
Cs 18.855679569451542 3.0331996096263434 14.170146904381353
