33
Energy = -23.23325231 eV
Cs 12.843395127341239 11.262287357451097 3.472039230696763
Cs 5.544892231801235 0.010396831673610064 20.91948365005821
Cs 2.5106222578648594 12.566895169164585 4.491554258237464
Cs 6.222788176856208 6.09830874829001 8.08320457199261
Cs 10.343817993273037 0.26843274218755164 19.598994997251033
Cs 19.443077767828438 11.237047476974475 7.526869466452609
Cs 17.889105373539635 9.638335032996128 18.41439818256689
Cs 18.26115785736398 9.769505192749987 2.6336778498595224
Cs 7.8014354344819665 11.374006471888716 6.740651302594439
Cs 19.73566812818423 6.240454886902223 9.38988104147952
Cs 6.731441633847456 9.012918409153388 12.986383838153667
Cs 9.259243075670936 5.3031039696917555 20.395664825697715
Cs 19.82965780974424 5.303558446417923 20.388992630685724
Cs 15.200385096295834 7.670955753683505 6.762006029254423
Cs 6.370638481940431 3.1979253178257823 3.7753346886740227
Cs 1.311226809002731 1.849143556816964 2.2190350097284797
Cs 3.96105840963892 5.159253723228559 19.831168732114275
Cs 3.5883434712577387 19.20262735783681 5.14679165625302
Cs 3.0294175063278264 5.305333503486058 12.563756977538358
Cs 8.867769475135363 19.76477695811097 3.9737439242624695
Cs 1.3386953444274552 7.035810377298454 4.358542961060199
Cs 8.333280865168156 3.9539284568467425 12.851033088792468
Cs 17.955755002528864 4.017046185601962 4.233604334082052
Cs 1.5652589266944594 10.062983079550284 -0.5189961219360117
Cs 12.465742315291314 2.262152203960005 2.9161723125235164
Cs 5.966442500245327 8.747547612024785 2.353049961413578
Cs 10.432695215112727 6.866374770003698 4.488175601222064
Cs 14.454301311946036 6.636076544901668 0.5167830830645366
Cs 1.8484766823521999 2.649456813231791 7.554517638776245
Cs 2.9020270144066767 9.80144122038446 9.257421243234088
Cs 10.990388541940524 3.038739427429796 7.955128273735539
Cs 6.60067164761708 0.5376442691328578 8.984843680944188
Cs 10.879257984466722 8.13050070777551 9.932579605302431
