36
Energy = -21.62646494 eV
Cs 23.41957094392332 22.621634131984518 7.662661924463923
Cs 22.72339295328821 18.51845779493919 11.722551270337371
Cs 17.7518163551601 18.92045918419235 1.3700004950770912
Cs 14.246715326193279 22.818154256292452 1.4334786229102325
Cs 20.565029434145938 6.249911530859689 6.655476825373202
Cs 18.838774832731687 6.04592353009396 1.8219351076727588
Cs 1.2257772926004202 17.437782235183366 8.094141938697888
Cs 19.472908781122882 1.2059934071359295 3.9984381703145058
Cs 16.970508249122226 1.3322485690390145 25.04715280480243
Cs 21.413044438908855 17.96882280491148 5.862793806464332
Cs 1.3872843956977707 21.60249825640822 11.724690998884887
Cs 23.410541760144504 8.830488818883005 2.576207169676833
Cs 0.07490938125251795 5.458797410201968 6.2418901627828225
Cs 19.510695962181433 16.831497099288338 22.27288048215114
Cs 20.032170327586698 14.023834178332333 1.7290067928472532
Cs 24.4000285696067 13.608165565083887 4.692584331186816
Cs 6.1049616029544955 1.5869659740336566 25.436409317202763
Cs 6.487822832882695 21.712340285814538 24.796461153494004
Cs 1.4547715295028323 9.274253609877784 15.298887847535177
Cs 5.0235193331922074 7.146772526603223 23.64154688346286
Cs 22.980577934108528 12.177145866784032 16.397959532338803
Cs 3.5137187215642514 0.5609477658269038 4.357223322667121
Cs 1.8527043454487937 10.0071491476354 20.818860190147266
Cs 4.238357310723516 18.823026159705424 20.65190701839069
Cs 2.900610766790058 10.51252326989759 2.27679082893554
Cs 4.393704431018523 5.627961140810131 3.083069178676135
Cs 1.021402871175542 14.819368963538391 19.208555747116527
Cs 1.107622926488952 17.65491840019724 15.10412051621938
Cs 4.443180723064678 13.793476677323943 23.672012713701402
Cs 21.73703125527205 17.05059567796955 17.096876327542024
Cs 4.473681847424239 5.014652993004699 8.447560577425172
Cs 3.3373297378192794 16.029214865869175 3.339877534940713
Cs 1.8633278169213623 0.43481351639505045 9.160299890079001
Cs 23.154996696160342 7.45761161525254 12.019384906259589
Cs 1.4525923628953965 4.22634710782419 12.604992500759042
Cs 22.682270581194 2.3061674142432014 9.354418095262687
