33
Energy = -21.4893577 eV
Cs -1.6036344460294396 3.9411088353760744 2.561514906002221
Cs -0.7037168222599132 2.9684749776765864 22.35669325636992
Cs -0.28835532829821037 17.834372063902617 21.621381969497538
Cs 22.28039569473928 11.678097716890244 20.358676339145852
Cs 21.87977536654581 19.2783160366928 0.8087577427616304
Cs 15.529769588346 22.826864729085475 19.296155916960075
Cs 20.78111198098772 1.180907726104476 6.213317902704298
Cs 14.618388448812238 24.25201268598373 24.160828552594886
Cs 19.045575154098678 0.1459062899707333 10.935253880837598
Cs 0.9327845406293465 14.685236304968809 17.776508768119573
Cs 17.24609116786753 20.130796992242395 23.83973789457155
Cs 1.8560854126296031 19.59863818629135 1.2909901131458419
Cs 22.125262006709836 7.808689748407454 24.220327524748754
Cs 20.60755898899175 20.778210762922605 20.03380079073797
Cs 20.525742157192408 5.790921538057744 19.56065414662858
Cs -0.34598661009994724 20.610354836234375 16.82323172207895
Cs 19.16078702410403 0.7579536980635337 21.598005062680862
Cs 19.134447105654154 21.574175329725264 15.1135162284048
Cs 19.834124156743865 15.744817646505922 22.506657370625316
Cs 21.778749124840747 -0.6716251886374155 0.8060083769806148
Cs 24.220702051253404 14.038841243269305 0.09178957585334066
Cs 17.90344306162171 22.223208955468984 3.5954466455201164
Cs 17.728734223190035 1.930417987549685 16.63749779424397
Cs -0.008058175298270414 22.92646782287999 22.128793506232334
Cs 2.898277825553178 22.122766042649264 13.252053110642557
Cs 22.492812938324384 0.5481576181221472 17.50005085363419
Cs 1.4069977801739235 17.135626653847 13.134643970176388
Cs 21.356612760057693 16.561055699508927 17.28499764923573
Cs 24.223252964375057 22.30736117013761 5.138360864073571
Cs 1.9723070302108843 -0.054370490437451444 1.3361316036172648
Cs -0.773958799924022 16.696924997775895 4.935342016815589
Cs 1.9881424299024653 19.572501623452187 8.511952172741278
Cs 2.559217601468995 0.1344734037822862 18.128700965460677
