36
Energy = -24.97120388 eV
Cs 19.659404004318706 16.647668999310124 16.8136810082973
Cs 19.717065507625907 17.315047075481417 5.289783087801758
Cs 9.232902774693363 4.422778928687053 17.538289024445707
Cs 9.209020543021794 2.8934525329042446 2.4575223407095113
Cs 14.4439833786057 2.9633155814315173 1.8637143288328428
Cs 19.528516518588987 21.78130233623109 16.95386228184771
Cs 0.18412385112819132 5.6929357828958205 21.597933172514846
Cs 14.657872610949276 16.611843073808682 2.093119655783789
Cs 21.792428583191054 17.82627897688773 10.364170005775202
Cs 1.5381322878620693 17.87570422718535 19.66408841040538
Cs 5.752504111011785 -0.6180678222961186 4.3678297427482615
Cs 6.29407875047266 20.59955259828681 -0.8019279181679927
Cs 15.253239676918344 14.989799181323313 19.678271501087114
Cs 14.967703897902012 2.123310823189507 16.936139412629263
Cs 13.97749258587708 5.806584524106117 20.238117614487955
Cs 2.236030372670317 2.810867969027396 2.8414251320355945
Cs 1.2045468123054646 20.22369698154534 1.866132500201736
Cs 18.521333034343535 2.042102116376102 21.253886615157068
Cs 1.498609041905595 20.206859749012914 14.948956330645293
Cs 15.46444789511716 20.30128446541018 20.387660590156546
Cs 3.2414345537142073 17.818588283659544 6.563914931213112
Cs 22.35955200968977 22.082575058746436 6.4414277005163045
Cs 1.1402825196602566 0.5713180013792627 19.987729058491574
Cs 7.903112144081415 17.25773511652597 3.0497530610221752
Cs 3.0688844755504707 4.85332022481489 17.06529397754645
Cs 19.57235551573872 17.527032373121248 22.208896118580082
Cs 20.38810484112559 4.53173093781514 16.98808785001872
Cs 11.178187248133247 0.7014841088370112 20.557076661753772
Cs 10.765632095928526 17.87319049975717 20.586796057121628
Cs 6.186419470973968 17.755995177448913 16.914729956714957
Cs 17.52870294370232 21.255318492914313 2.8178314462921534
Cs 11.713727792366823 20.85998161019868 2.4459083408786544
Cs 19.81041160747167 3.368675000679753 3.495893162279957
Cs 5.587462718269734 3.0920052600692407 -1.0968910489071593
Cs 5.752007348974503 0.29987424600800555 16.95336782584656
Cs 4.329171968447292 16.80857359957083 11.903884227576274
