31
Energy = -21.04247126 eV
Cs 1.467079592394347 21.23116392159059 12.570490915506923
Cs 21.19723872821878 15.898036061626293 0.3948830243489767
Cs 4.4386446076098505 21.76320678608742 20.568528664260786
Cs 21.6294399675197 5.910842863710834 2.7311868891562923
Cs 21.06623758427083 21.862332873621007 16.252641034966484
Cs 14.663847123658764 22.918013982178998 0.224402905520771
Cs -0.11752356867920566 18.985745810791908 4.079584277920008
Cs 22.29902514391233 10.994173464520852 1.6667908229926838
Cs 15.727139632963333 3.262346676296725 20.14796484493519
Cs 19.540549338935794 11.675005171699198 20.304623407835987
Cs 16.11160038396897 17.282704453552824 22.16870980480753
Cs 1.7080130943965548 0.9039305430955797 17.185990189402897
Cs 18.227675940443085 7.335226189905637 22.73709535806135
Cs 2.532646750359793 3.7837352719635424 3.710170284509102
Cs 17.30982835641356 12.565779583995774 1.2046837092139242
Cs 22.291240956573347 13.08981978910051 15.997225152746008
Cs 18.736685992478233 20.314001568213286 1.8604482041098975
Cs 2.4754639408981527 17.533124078284317 23.07108359325996
Cs 21.609884739808724 17.334659135784314 13.297895696858687
Cs 22.012196243509766 0.4473164832122973 3.7861348229601535
Cs 22.643566611757656 21.381116311829732 21.872896531303866
Cs 3.37287016365672 22.33953198951242 2.0950577803268278
Cs 19.51769927691849 2.0680599482737083 -0.24426524270631328
Cs 0.9048743959454281 13.095153546387062 20.72442197393396
Cs 20.307905557358502 17.05661577720209 18.99536316842672
Cs 20.907769364575262 3.6606151527645006 18.640990307211595
Cs 23.3146385686128 7.606602927325836 21.331737513049525
Cs 1.4606414973856423 18.349048106974934 17.666751507688247
Cs 2.0950971519222037 -0.2937188158184624 7.4862623198636955
Cs 1.2666317351645635 2.604008200716315 22.38992307485293
Cs 17.681763078138 21.859575052772303 19.898100369847665
