36
Energy = -24.77555812 eV
Cs 7.5101095400063755 20.122643947927298 22.875040083342334
Cs 2.9690033108120386 18.202755920337037 1.343284589808658
Cs 3.506512191539775 16.789817823125993 19.907507013524704
Cs 3.6087975922045854 21.966648747268707 19.515929469515527
Cs 22.469619398266815 15.54223929265637 4.205362376344406
Cs 2.1437633903161597 23.32034943491959 0.37136490990529974
Cs 0.026805111435521403 14.327388105243928 23.51552560611746
Cs 4.823449582440373 18.668612295317406 15.01877625540521
Cs 23.094751144696506 19.68164601913789 21.69831696580286
Cs 19.73636361553881 17.7093637084603 8.201899225951092
Cs -0.7700127953681621 18.825275867087516 16.703855644802704
Cs 23.84427818408218 1.7671439980631591 20.51656568332985
Cs 22.210643504629992 20.51127458527509 2.973703060612394
Cs 20.846740524293438 1.2522456284425953 0.8038533933804669
Cs 1.6684393811756042 23.085906127626966 14.619669694205355
Cs 1.6776876041693112 14.733837827780784 14.93035611993057
Cs 21.89284155062722 14.36442402501417 18.972045372357165
Cs 17.363084715505256 18.383924263949464 3.225602748561133
Cs 18.229814825604254 21.599038995826906 22.37279525070036
Cs 23.571034865055758 18.742966247115085 11.73659967053686
Cs 18.821079990942653 16.145455662727027 22.83029129478289
Cs 19.327686698176613 15.045217012112634 14.73311945101267
Cs 14.92532478261188 14.804005479174 18.71503148677831
Cs 18.102227147635205 2.4699960673829136 20.102790218524177
Cs 15.151142524457333 1.4242629559415598 0.12382812331426218
Cs 20.924172610168526 -0.5719313976888662 12.486725435991282
Cs 20.870331606342592 -0.9622720445114764 17.58095140790936
Cs 17.756462071953035 19.67167205688078 12.767553172192592
Cs 17.873135032706923 18.849698772496918 18.233856888809665
Cs 13.512273248355735 16.444699437506486 23.589182899435365
Cs 13.329567808245358 20.505102098934298 20.594317310131224
Cs 12.754502205030594 1.470520887792817 19.577991900035233
Cs 9.544944667115017 16.556577598781104 19.266734324397852
Cs 15.879036738855687 -0.5356781088949603 15.840310556591565
Cs 12.996914668030453 18.586318579562818 15.771792051991401
Cs 8.649958345920986 21.68806843263589 17.96257079908183
