36
Energy = -23.97478586 eV
Cs 5.539636366615259 22.6187140664689 17.20629444522535
Cs 22.435355628194937 0.527022049243432 1.1646594303164426
Cs 21.717968196780095 20.81821916871995 4.5565227557358075
Cs 17.260049583945136 5.3993493661932535 19.221297081766544
Cs 6.2212599892815685 23.037844966099815 22.68751019038432
Cs 3.4849004831742922 2.6564822160749135 1.6354870458156365
Cs 15.996105210169219 24.084072054177792 19.759513311217752
Cs 1.6788329473993873 0.1575440781152178 21.545129129191622
Cs 19.659681992244288 16.237851766181304 21.717962382216523
Cs 23.874873953502284 16.15763523496449 18.2702859671525
Cs 10.485373646625552 23.561346003598587 20.110347973442316
Cs 21.17796957489336 1.3523863569291326 20.20485932932877
Cs 1.0206951080150781 16.752864726253918 3.677266936435432
Cs 2.1698154617324765 21.933938676055043 2.5451184539834806
Cs 7.0839656584649005 22.045892559430314 3.7068916090671635
Cs 2.3508543734876257 5.731499159241719 21.626007914917928
Cs 23.23170256248166 11.145504707040478 2.185564843572993
Cs 6.952789423843975 3.1984799897043388 18.226854054847706
Cs 22.547427838701967 6.283178366293255 18.445129084993724
Cs 20.03753256322457 20.572068660752784 18.845310628649838
Cs 1.89790148287927 2.3629149696025644 16.99046683823105
Cs 10.65019276253597 20.135893000743415 0.3523207493733806
Cs 20.536126153955614 16.204494717769084 2.3516700215048085
Cs 22.865327317972156 5.646802603026955 0.9178781894840419
Cs 0.17988123786666005 1.704940760372038 5.73598633781811
Cs 15.662010370322077 18.12586019783889 1.2025203551385102
Cs 5.190575432382595 17.901666673798616 0.6555815756985914
Cs 23.79295086532437 19.698984532594274 22.898418712781318
Cs 12.430358996665303 3.7197295196089923 17.781207060714728
Cs 0.654001846199239 14.631204341545459 23.09041568640415
Cs 1.0346963818127073 10.845959963034149 19.50161157398856
Cs 20.845976656517077 9.619714491542588 22.086873335773365
Cs 19.944297233704884 0.6773220237845622 7.326086768355443
Cs 0.49792796700118175 21.347673016040993 17.3299919712226
Cs 18.89985950998474 21.603328955170863 23.79167638583665
Cs 4.219600806250457 18.33326878918282 20.082061024110622
