34
Energy = -24.10716938 eV
Cs 20.29690352346808 3.9311993105925525 18.820156638692744
Cs 7.379125697512254 0.15369670137404706 10.431137869840532
Cs 10.85333273922712 8.837249513365142 9.480744351319533
Cs 1.0571234350263112 6.323432029960413 10.946307165892232
Cs 20.297664648589894 20.311759957077072 0.024493812864615404
Cs 5.641952076394035 5.659375053966644 3.5556149432772948
Cs 7.371576149121833 5.282601540217735 12.240731600750841
Cs 4.057188974631537 3.41187376850634 7.916731895258498
Cs 16.098682652376787 12.115984253736986 2.1072270432374407
Cs 8.26106996540674 13.570112029576865 6.829145308706447
Cs 18.436087217935857 7.24236822933591 1.4485544119907148
Cs 1.3108698693033918 8.442450575247863 5.369460609180316
Cs 4.612532514747796 2.220557266506164 -0.3993487921664989
Cs 3.3960068531418 1.8179107434632564 13.459498542811286
Cs 2.8492569501783405 13.840519416320118 6.612723406751819
Cs 10.288463783281125 3.5557900075769133 1.7208622805649583
Cs 18.465549532274462 5.104178540662342 6.846599678133229
Cs 7.100682762088909 0.24798441104802385 4.618772264211189
Cs 7.777587586551781 7.757507802264894 20.03733799900372
Cs 19.110243295248505 19.757397098632882 5.383500562731145
Cs 9.509273723891935 8.70449939795044 4.348396623244172
Cs 20.300398395657158 1.428298777475405 9.904341048315201
Cs 2.891292637904618 19.222770829683867 8.294796621762409
Cs 5.275420682597846 11.348181602690694 2.49885862865048
Cs 3.0369854660299733 18.4382749315202 3.0244478375310986
Cs 13.291535231578903 12.543569730098355 6.195076682743003
Cs 5.666132320164261 8.733636881598823 8.416670358107446
Cs 10.427470709514434 12.768830846492278 1.4713956202664784
Cs 14.208565652603614 7.244038212984615 5.141157713057061
Cs 13.069308268478133 7.912496563492476 0.022316018806026884
Cs 16.330710347199055 2.4824850665277323 2.2590011170458943
Cs 0.9053196063836745 2.889364936608368 3.545414314325623
Cs 9.74070643519162 4.092730945797343 7.244886864018691
Cs 2.3752881964168266 7.624447104916204 -0.266626504922771
