36
Energy = -25.76915043 eV
Cs 16.097526041003988 14.772121018273047 4.83473225402099
Cs 17.865003259283107 19.730260844563155 5.063779478133094
Cs 13.052354454894658 18.648784021317816 2.5324473013338413
Cs 15.534483985179495 1.9000828608938594 1.5726191838289303
Cs 0.1388941752791396 15.350150280623856 5.082478103302021
Cs 19.737607043709964 3.4363204308899475 4.801516505040326
Cs 18.266878389085605 10.936122157106373 1.4756853273626775
Cs 2.2625092817822585 20.776796039994725 4.922477806603147
Cs 14.001775184851724 14.012264206239925 21.186573883990828
Cs 3.857068491503533 16.934283655187734 1.4649515024995068
Cs 10.570771541896962 1.0097456612623381 20.270874423857208
Cs 15.334368146673478 19.181207637162753 19.197782999434494
Cs 9.794116240233384 17.38371322093256 19.65178599685695
Cs 20.797813693062817 0.1063386885822506 0.4022816565829335
Cs 1.6098259927991594 12.52932724624702 21.055945837683897
Cs 19.199384090121896 5.432650029109119 20.923585442457973
Cs 18.938765897201773 16.390745630791894 0.5569029864349095
Cs 2.914339725814108 4.102249175342906 1.8545635888246168
Cs 2.546678182818942 4.487901109182608 17.843844862421356
Cs 11.821969130683051 20.428617735543607 15.444716375208271
Cs 5.050338905402671 -0.04593614270690666 20.285955154771155
Cs 19.886323757749746 0.9313979392840948 16.685800869529018
Cs 4.265096591013417 20.91561865096088 15.185660828455962
Cs 0.38006714687989884 17.19551763712506 17.303388008393405
Cs 5.329760346766773 15.71731917768742 17.738279820956443
Cs 13.062527949341503 15.084447536298105 16.015059471432117
Cs 19.081752361839783 6.461311729733001 15.571030637643705
Cs 17.976237846898037 13.042804522887586 17.469478172602386
Cs 16.89273797158706 18.14187608594116 14.257595777169282
Cs 15.05337407695793 3.0735411348613155 17.588824303606028
Cs 1.7407093066510144 11.654672650108715 15.858519425857319
Cs 0.004328589687224306 19.593013660776293 11.57836310072173
Cs 1.0445357865212659 3.3241365837387504 12.539892051479388
Cs 3.7164062997090106 15.996076340442027 12.786658351681565
Cs 16.718847622483125 1.873316157148723 12.599246175760253
Cs 19.863311101027932 14.277342626849705 12.390185541304119
