33
Energy = -24.26089307 eV
Cs 0.8799248914080128 0.5202831796646109 13.485671095457992
Cs 8.974229461367862 9.620479360593627 8.998726130827636
Cs 8.842063898687986 4.946152760243704 18.868135274282757
Cs 6.0845200818995115 6.63638276566414 12.534477293347583
Cs 3.8597418328817668 9.463235880389012 7.881767526152155
Cs 1.2128601359916937 6.908619774653907 3.495437268019196
Cs 6.000696450495236 1.03608604413783 11.450446119299867
Cs 2.7313233619063575 18.580079595731156 8.134419493574773
Cs 3.8726426212873157 7.372209115377893 18.521617094105054
Cs 4.748444616795495 11.432244432926613 2.6571534420756535
Cs 18.474715114114236 2.486665703039166 8.843467941345027
Cs 10.73984658926527 11.155758589162781 4.4223403335228895
Cs 3.7194622728420415 16.725632881573166 3.1132311255650675
Cs 2.454656104928626 18.669110898795914 18.52041779688148
Cs 6.72094876273053 14.259905488228974 7.015190241584735
Cs 7.828653621462771 -0.2869858706447218 -0.20268239444026262
Cs 0.2616431673815247 0.6743469641668249 3.781287445004245
Cs 7.333529721443636 -0.24480094194798163 5.729206562346271
Cs 11.10675945593267 2.7426565823115343 3.403071359712565
Cs 4.534571668861477 2.902023110398806 2.0927662336264583
Cs 8.828224273775099 15.148306296198985 1.8096238009733239
Cs -1.3001493438526124 7.724237391387643 8.182034319991555
Cs 8.876237728398984 4.366724619112449 8.255609549066914
Cs 12.9598328597098 7.276791038752444 1.3735729709886553
Cs 7.467849860979203 7.070102852145905 3.876655542154092
Cs 19.91105556461602 3.578945633286922 18.706192511867126
Cs 13.477735220540334 7.004726078417792 6.978853684849178
Cs 13.016696235431688 12.235597666266997 19.690342041355446
Cs 8.364500464612684 10.236970122241866 18.88937051726613
Cs 16.590225228448418 4.122045721465535 3.7270379914325003
Cs 4.960986138447835 2.744553682429735 16.21979894081172
Cs 0.9261972225704329 5.754685610157397 13.021115002312879
Cs 3.471814982799082 4.131470486608131 7.742416389977871
