34
Energy = -24.2410186 eV
Cs 5.8076108911943995 17.771648112822678 16.059492844309034
Cs 3.529860246605721 2.50660617146198 18.849267439737453
Cs 4.62511843468401 18.831411175234038 0.12693558948123324
Cs 4.598804814337092 1.4374220403653473 13.588273733651304
Cs 3.799139885805046 13.594690363797207 20.6768966325924
Cs 18.986993218401267 20.280606072430047 6.096320262883964
Cs 0.5507507767609046 4.763696675587572 14.888539408833479
Cs 1.7038019080499782 14.22556166179054 15.657708465600106
Cs 1.3245263103710136 16.45400604403973 4.044174065194291
Cs 2.8624577054763805 17.672312181712925 11.596604401859153
Cs 0.5194509004307463 19.858276792151706 16.47166699388302
Cs 18.586926486332008 3.2981286452048963 18.96119946676126
Cs 19.868063548339965 15.656646393685923 20.127285391944003
Cs 20.52524396182432 0.6730887737424398 11.339998683046437
Cs 0.1409953715331957 9.74632940301866 18.689183319751102
Cs 20.777970292627597 -0.07727776056691026 1.1739742952530356
Cs -0.1268005747350063 11.454555351955062 2.6207678946395045
Cs 16.346618530191364 11.582223372418795 0.19064301168764747
Cs 17.14213982378319 15.275113083251691 4.306016183435323
Cs 16.441091465009727 3.1711234083650854 13.995902782289418
Cs 15.782384856862933 19.074112070596456 0.11354083950975793
Cs 18.84265608579502 16.35408098200415 11.321371300258164
Cs 16.35396777671487 18.975880949348895 15.814472481573791
Cs 15.665664883202805 2.624190504136178 2.6223641197677137
Cs 13.312267334897097 2.493917909867049 18.45916972789058
Cs 13.314952355349398 14.078386810220927 17.90395560679871
Cs 13.70561615780359 19.238787134920127 5.34794353438756
Cs 15.418088952842977 20.42655998940525 10.282906521978656
Cs 17.751722358953558 13.163134918744827 15.682064467584569
Cs 12.130234222248747 15.56577052920643 1.7041592760263469
Cs 11.43701070057022 0.24876089988166034 13.849460069925215
Cs 10.655654687276991 0.27797204633128114 1.453867118828526
Cs 13.440903941855254 15.823396850195065 12.90654905279676
Cs 10.927392226936194 18.564939319418226 18.18844363078624
