36
Energy = -25.2606119 eV
Cs 0.3903711131542973 18.3378353281631 6.414958203379121
Cs 4.484927607590329 20.34688944094257 3.357595202307473
Cs 2.136147237119727 15.26526019307499 2.2661519372317467
Cs 15.27618773941651 14.212042770009127 21.831967214568785
Cs 19.278297935610613 16.711765448662838 2.6850744639706505
Cs 21.002767398351992 13.133991338743606 21.427698134481236
Cs 0.7936756892028738 1.0785754547042319 6.5592439647442164
Cs 18.326323153718548 21.93910090386407 5.0912260060875045
Cs 17.900816421541773 12.964370037354145 17.120674756313807
Cs 13.478346178759555 15.757993168067172 16.600676061198435
Cs 22.08433123193663 21.256138011046623 1.6052657619351502
Cs 14.853944011136688 19.277837578259465 1.5963623655395032
Cs 6.26721100404273 17.23685524346622 21.652385166397387
Cs 3.316575189808961 13.449747914894404 19.377671448941943
Cs 3.166039972067038 2.8897738300947675 2.031506871345378
Cs 18.61650957740861 17.540679081950703 19.946945325484354
Cs 1.2805239935555504 18.281180778186283 20.40998741312747
Cs 20.479042481037858 3.875923719281623 2.6580652303472534
Cs 5.500101557595992 22.215225283974647 20.736505430277795
Cs 11.23320144950005 17.774776043472908 20.762444088931776
Cs 11.665131123743572 0.4666374802971648 21.00698217404276
Cs 17.52554502632932 0.6714076340340912 22.082908436101942
Cs 4.510606975917909 18.060347439214738 16.26447992571945
Cs -0.007835822067343064 15.396217078953716 15.928366181649952
Cs 18.19505070591328 17.412957852365185 13.919070057551831
Cs 3.772307604271156 0.7565730677694132 15.810177430262556
Cs 20.994469149095675 21.252733745315705 17.118803242711166
Cs 0.12499439657500877 2.760119623330597 20.12287471317868
Cs 15.237577337446343 20.484934593379343 17.970286849318626
Cs 13.392246963004217 19.559880603358298 13.002776049818632
Cs 0.5303340647689884 20.065910927922776 12.438117965232772
Cs 9.303964759583176 20.63583560237472 16.886006245630263
Cs 17.55535019294956 3.221912947418 17.652136619304276
Cs 21.961719638867862 3.336997583908471 14.570307314020011
Cs 17.817105154655984 0.1519942204851173 12.861129076726176
Cs 13.104191004538215 1.8689366656335855 15.412147415877719
