33
Energy = -22.17211348 eV
Cs 21.258885538803195 15.28054888827553 18.409563573309185
Cs 17.27526863200069 16.202665072615535 5.461712710153872
Cs 20.45436267875765 20.442313418488514 20.736286331662765
Cs 3.390996150524362 20.29422801112141 6.94533680436382
Cs 5.313328955381754 1.3687067096556793 3.9449972406157334
Cs 3.84598713668591 5.159961400241858 18.687775497701992
Cs 22.220534917316378 6.675519568940635 20.991701251861684
Cs 19.782480796346533 2.4697097380098576 0.5414594270752725
Cs 18.53006923483251 17.573686093328284 14.192080370864685
Cs 18.24455784579632 -0.41422253560462224 16.095654951303686
Cs 18.531689867430075 20.743535837885165 3.000571966839816
Cs 13.769501507004726 20.174540210464432 15.155314969535475
Cs 1.9096721633190792 0.782770675645482 -0.3989978894286397
Cs 19.36168769994055 15.665843684851897 0.668744402728051
Cs 0.5476142198418686 18.815959785806125 2.453690337954249
Cs 7.151231237992416 2.2933603074095408 21.649571713677965
Cs 11.302273257558417 19.32164529248516 19.812284715068028
Cs 2.5689117108904123 18.11518443822358 20.46123849034839
Cs 3.4931630150356887 5.803274801992301 1.1786995614561477
Cs 7.077959171387177 2.712114073938287 14.853635420778927
Cs -0.1273978028963543 0.9391305554980436 4.638153951953895
Cs 5.7073934181331625 1.3500997467691962 9.813987561362929
Cs 1.1041001216733253 13.351502337058148 0.003497445997903203
Cs 21.351689286288153 18.896065770441357 7.580323927745654
Cs 14.458057317543751 17.86505117334716 1.1072720813649066
Cs 17.47760868161749 3.9636522475092306 19.08965887922635
Cs 22.35328567418097 14.175400586862859 5.315441228755766
Cs 15.547703471838354 22.358154445336837 21.00559822085113
Cs 22.364297117590436 2.063216404400963 18.12277181754543
Cs -0.2625620726700988 9.252748544247309 3.241451717509304
Cs 0.13480140546532543 19.907315451209325 15.965435146968591
Cs 4.3825943021049545 22.474901786218712 17.861960432951545
Cs 16.365863404200635 17.31061046385077 19.062520535316583
