31
Energy = -21.93721168 eV
Cs 20.77538290307176 18.93164273255088 3.89702769012633
Cs -0.17117995290536708 2.4453264533415013 7.473985777276716
Cs 5.610248835620385 20.254291187023753 2.8658716481167077
Cs 0.9065163568053275 3.119626982280392 2.222142153790942
Cs 18.030930821233174 7.183062178762797 1.5175553662587147
Cs 7.86616208125756 1.577742552176413 19.20013766080946
Cs 2.90643831605301 15.171866000591256 1.573328095544182
Cs 2.9803067538863086 6.270394823326398 19.59228223675378
Cs 18.96255847287461 13.3373904565657 3.3763591678764393
Cs 16.459457593841535 2.2091788437247435 4.034914122550883
Cs 15.572947192169746 17.637928723883608 3.634829292801131
Cs 8.111564139824472 16.72094760681442 20.376707987782897
Cs 2.4714779109488108 19.870133846071884 19.725781936670323
Cs 13.601615347635756 3.379231019251379 20.40048452024673
Cs 17.923621814714227 -0.02701313512445492 -0.39930930269235443
Cs 11.111796125898111 -0.281960696320561 2.627543643770359
Cs 18.837998033775506 4.177832595839816 18.013888893072956
Cs 18.82955813599978 15.956876479898137 19.587282239163805
Cs 15.176738978183698 12.370815352590546 -0.41812323491840414
Cs 6.14590135642038 18.718732119756215 15.832832435305308
Cs 2.766278369538914 2.5062690252535984 15.831788054412897
Cs -0.16682328969541677 7.959487880063519 15.07589692191695
Cs 14.793057671163446 0.6594722129655483 15.944568989934519
Cs -0.0022710891055281375 10.861055136935885 19.758306804690818
Cs 2.7314107955800004 14.657946294296437 17.22330345121793
Cs 19.10388611637812 2.6227884708436258 12.664691370975051
Cs 12.207082817571479 14.634881533610512 16.206115996815047
Cs -0.6627540183984275 19.092681397697426 15.422638229546449
Cs 17.55662146677 12.563371501424422 15.471245778511195
Cs 15.832905470918307 17.224011587499344 13.347521997814189
Cs 13.577750036347663 18.04117440078237 19.615861971962183
