37
Energy = -26.0455692 eV
Cs 13.774360887054076 19.688643496041216 18.598102313600542
Cs 14.991697478568575 18.70636624599748 0.9672296203939957
Cs 15.836644179712286 16.247682870791913 14.99052083668714
Cs 17.49575987645596 16.239484715485677 20.13007788910972
Cs 14.16919415415722 22.020453215294086 4.957777225285781
Cs 15.128482835215447 21.161874149534526 12.964990992646413
Cs 17.0787214863976 17.897916441686778 6.464309525148438
Cs 15.008990833031602 1.1203845833525468 0.005255910712565426
Cs 15.119257338751597 1.3618300310916334 17.345562770819907
Cs 21.482674566546155 13.071063120009395 21.18708385023977
Cs 20.931723762193204 14.734959811860772 16.242579676567274
Cs 19.9575236731793 16.375721517426825 2.065038765953318
Cs 18.576792313209104 21.595671242684077 20.782054155597343
Cs 18.5790689318184 22.45008143394781 8.729713770297831
Cs 19.293051407289443 19.974645957369734 16.107228653775472
Cs 19.792302506345315 18.01121792709236 11.427448472799782
Cs 19.275745790030438 21.382659180156622 2.9209480126814813
Cs 17.450951317375893 2.887274749459505 4.830148516949722
Cs 22.999094034438993 0.4293180591609632 -0.01369183490846733
Cs 22.389911002340348 18.853359200285112 6.885627359586266
Cs 18.994127911285076 1.6811901514651406 13.719455708049212
Cs 19.67297492808576 3.3177333847884114 18.7163547115565
Cs 19.80803932700428 4.259131430328043 0.6724023399564126
Cs 1.917873450080326 15.002447634073643 1.386235595668897
Cs 0.4012891535295088 22.71295309083178 17.62105514063285
Cs 22.972567419700322 18.442288652793682 20.7631095105905
Cs 22.685723787757613 0.9726384619679788 5.641595020462946
Cs 1.3730552790550772 18.15523301932876 14.590770858592089
Cs 2.93406264866595 14.897793159244781 18.67936461351384
Cs 2.322042182914983 20.088857436172056 2.7669843780082557
Cs 0.40956637936221973 4.230378034335729 14.999785967731942
Cs 1.4014729602808615 4.520915236549565 20.47232433451943
Cs 0.09750071064779481 22.30341084193607 11.694387594042585
Cs 5.640949068365497 17.910785688535714 22.275967985360758
Cs 5.2185221861903655 20.032592444297226 17.624892916661867
Cs 4.941664509788463 0.11946884273215443 21.875211389771035
Cs 4.909687789899722 2.1970908869892343 16.941139099273467
