30
Energy = -20.07715007 eV
Cs 0.945591126852133 17.976344093232978 8.467608201357553
Cs 20.329729877079014 20.608535243682233 9.313893773383635
Cs 16.753913276556734 17.05430573911883 10.428582654602105
Cs 0.7936989409187168 22.995845583758324 10.835288704202098
Cs 21.643595229405616 15.469247379234684 11.758140422302683
Cs 20.20676750070304 0.5150711433886115 13.187934841285472
Cs 0.41532527846980316 19.156941332715405 14.097342447933498
Cs 13.349448791541635 16.792651648566917 14.273236272200526
Cs 17.894824557276667 13.506345869956789 14.68795902973887
Cs 18.647227964693677 19.433332272637976 14.798340005965619
Cs 13.598516133178956 11.918395907189483 17.175280340108774
Cs 14.08402388884523 21.1309840023711 17.681714769191586
Cs 17.848337643546635 1.1739412913957812 17.666633754992883
Cs 22.829667497545596 22.709549500509016 17.55893701424036
Cs 21.67648913431794 16.128800946160894 17.84169781655518
Cs 10.858219115686206 16.65910764251569 18.90669927571751
Cs 16.11811282614729 16.228892580128214 18.897965823504663
Cs 18.880704154232944 12.022148287210904 19.950141055032883
Cs 18.63491094463374 20.215122855168676 20.18695543504693
Cs 9.638837621184194 11.617444644355212 20.466782415481987
Cs 15.572892416335527 0.38519360868236635 22.308852668478174
Cs 14.267788332207395 12.828853899947688 22.569662522089814
Cs 22.858467281629405 19.42775109280942 22.601157483784796
Cs 20.905742242143226 0.7854226475600509 22.065087678378617
Cs 13.861816224358058 19.102608066773055 22.984893807294082
Cs 22.735991792178485 14.144196428068483 22.839434260770304
Cs 18.08343122057666 15.860468579641145 0.4075656512294315
Cs 10.03113103455389 15.742020884668403 0.12306597440547548
Cs 18.249689080759197 20.980828429973872 1.8385126967716912
Cs 21.932377707084434 17.304098645514262 3.9550834508887323
