31
Energy = -21.54345548 eV
Cs 19.123855389943312 16.439278857336365 10.637040014119835
Cs 2.01043815058431 20.08501024839953 11.052065038638318
Cs 18.345040185153547 12.80534203062379 15.091027352115011
Cs 0.34097200159618074 17.122339143107894 15.379163084801286
Cs 1.2093459187986446 3.241096051787555 14.161018699046364
Cs 18.86913914730933 21.31377450916617 13.37692700580268
Cs 15.151496831879687 17.46457908014384 14.285887332153454
Cs 4.313933023906085 20.879795775426555 16.03584004726808
Cs -0.003203999461866106 13.084944884212165 19.775305164769392
Cs 13.613957155367059 13.346277324777867 17.251723543473833
Cs 20.892820345331565 0.30000167626420743 18.450730463239108
Cs 17.114011336944202 9.934174224659959 19.529762871094903
Cs 5.254385507388131 4.448766582650455 17.248672074412227
Cs 18.20836704964467 5.1237028371150695 15.907241075254731
Cs 17.848044789314685 16.939673642429888 18.781208280196573
Cs 2.835568735726369 17.896922178316824 20.19306181159739
Cs 18.99649730440181 11.723525636412356 2.6765551425574547
Cs 0.5743415937949072 5.74038435856586 19.6449993007321
Cs 4.484815988139183 1.4825462440576278 21.277559098312363
Cs 14.90911949129583 14.51495721556346 0.8257951381759968
Cs 15.387397981229727 0.531362234004605 17.397207966524977
Cs 12.261502054336168 18.042006270267443 19.11703134041444
Cs 16.439531295968663 20.353846135612518 1.2290881282706831
Cs 20.5018402925374 16.98395502288059 2.0302945141639155
Cs 3.5782757137540053 19.82237697554109 3.74334443808744
Cs 21.172359520012442 1.481002537296189 1.897955753865458
Cs 11.86083929135774 1.3489321623109074 -0.13300998578442444
Cs 11.73186564779492 18.452832750747966 2.9280716656560166
Cs 17.113060559891494 4.169748826141601 21.018346271903628
Cs 20.501772742342535 19.92062474338736 6.588136457600906
Cs 16.463917054641577 16.184389997035215 5.642490689158536
