31
Energy = -21.06268469 eV
Cs 15.25253445741164 21.524818767009624 2.6015379619395183
Cs 2.048961657641866 0.12436349942537844 6.8669323726615445
Cs 18.363391895318603 17.692069061973324 16.343012033067044
Cs 15.876479884381187 1.8939450232043258 20.081831280121904
Cs 6.561290157694209 3.282837767887514 20.41174343589328
Cs 1.6303478787093675 17.94670262260974 2.7258173501460656
Cs 19.195624975694898 19.05051430430153 5.5968281361003855
Cs 3.402154011734972 8.200207286217108 20.244509542497713
Cs 0.819156234359281 2.8645854984150287 20.40119479633235
Cs 18.965500110569014 15.373397059230607 1.6102972305975114
Cs 3.839008959928209 19.86110995244842 19.871623798740593
Cs 4.676948404102544 0.28619619005628827 2.3287093046905785
Cs 20.571749887346993 1.5014246239813853 3.023136818349799
Cs 7.414659110059867 20.318655135639503 15.843947058262678
Cs 1.503004161080683 19.323086415323516 15.217719931742433
Cs 5.540590475072436 1.5032339309391483 11.296272608975366
Cs 0.42017252414601036 15.63194388946322 19.323138399488602
Cs 10.14804658292599 2.7755361351142414 16.315026460516435
Cs 14.124123516342785 21.22380085369899 16.019041747247712
Cs 6.692799613517395 6.83109531691093 16.431123387260183
Cs 3.528398259863766 2.465512366635254 16.027077987999995
Cs 14.609220318212838 16.66082442101386 4.104472238521753
Cs 10.689195033886351 21.108439838040074 20.56468033861467
Cs 2.776688015572845 5.259729379888997 2.876965161308267
Cs 11.245797213831485 16.87607026406508 17.392026856371945
Cs 10.406600214649895 3.005222503236898 2.0652513444998046
Cs 20.019200627352948 20.12972048886339 20.989497862857924
Cs 15.20591933235125 17.842657592444304 20.677689302431087
Cs 6.7228439304864285 3.268970793926001 6.160519603544106
Cs 1.3908462271921491 12.183375159357949 1.4785926184115616
Cs 19.598897032613053 1.086344514880607 16.062413639162155
