35
Energy = -23.18320088 eV
Cs 0.3573148703371771 8.679168958985322 1.6873654236276145
Cs 17.77073173719094 3.9087308500194573 20.353204779452494
Cs 20.88546209949581 23.055666650703024 4.9180426436116225
Cs 5.2037361097160195 6.075666050057352 4.1488554117834
Cs 15.566524882028297 2.705536248678573 4.531451715610516
Cs 15.843049209831836 17.74037880185966 17.62476386543
Cs 10.21952264051463 1.5534809493713684 8.025665913320493
Cs 20.35119423879772 19.16886703279724 15.162515480360383
Cs 6.2527981588752946 20.071257021860415 16.57299538928431
Cs 4.672659190647908 1.1232557485818062 7.5161151431340265
Cs 0.1363825319891243 22.16423374834795 22.81322878716927
Cs 20.241187003416833 18.03826085009661 2.8423621529721097
Cs 1.9426355702176248 2.3290185362012172 2.8512653246361435
Cs 19.82685581193755 12.826559745345838 0.3590646702874099
Cs 16.113033905890827 7.493227425186298 0.9899994890850092
Cs 18.14543962622567 22.9097862796587 0.4827289609132462
Cs 1.9331625454684418 21.998874055915046 13.359293179851955
Cs 10.379306604887132 4.539094632857788 3.7632911706248136
Cs 13.509524180483192 2.8360139372513324 -0.25731842394225934
Cs 1.8035233327382023 19.828850919438498 4.148698770653101
Cs 20.203065692970345 4.408689565551965 1.8404365845773836
Cs 0.5309254960911352 13.755771758506619 3.8667571645540617
Cs 11.421157852330566 20.992349190651623 15.307743489150038
Cs 19.97065546773591 8.684714852546977 20.516053990926594
Cs 22.1950293641804 13.604440405199266 19.054867384656347
Cs 2.7310978709024245 1.1326147127883042 18.019982692912563
Cs 1.4451563211093554 16.461130396937314 -0.39254548636517056
Cs 15.679677916800731 17.77386467232236 23.07459443794105
Cs 7.154477882695061 -0.012755811441193601 12.305421125341189
Cs 20.515578380744998 23.19067361058371 18.524818930003956
Cs 20.18511724861464 18.357704925733824 20.861583837544003
Cs 4.1535680643856 15.277402488900762 18.280442310291726
Cs 1.1993868857344216 19.325902427406024 18.2558670618041
Cs 15.03459289457058 22.291708565567326 19.67842029345009
Cs 23.231151962737773 4.285670985919227 20.996512986333332
