38
Energy = -26.87659668 eV
Cs 17.94815888969209 2.8868771748470836 6.104082263734064
Cs 0.9226949058998227 1.9577829347243152 4.526393756501843
Cs 19.763847468469898 20.197038467209364 6.901379405735977
Cs 2.644431214554221 19.34070968924556 6.091610100923118
Cs 20.27909544991771 6.0806653128127515 2.130607155254414
Cs 14.973626736419718 21.317378882376563 3.4481854491448023
Cs 15.251630432376265 4.229216174179676 1.465396264492328
Cs 3.4417363904354525 21.080718280575763 0.8040539617727163
Cs 21.062856170994177 18.538437908746744 2.019274611950022
Cs 16.573921106440608 16.43110784269557 5.456996188503963
Cs 19.23958189494548 0.9044041232784389 1.3312468667194353
Cs 1.316978192730304 3.290671572139862 20.953810774071048
Cs 21.591771318075523 14.9706499751528 6.237829045186727
Cs 2.653940849534264 15.376685305191167 1.8586183612238276
Cs 18.55138699188547 4.250961299238566 19.370293694770297
Cs 11.784211266373681 18.028726202995653 19.752511331818955
Cs 16.429091034466992 17.51926918493623 22.15150914265947
Cs 14.833779647285981 0.2581165483569466 20.13993627537649
Cs 19.35283892141511 13.247570003408487 1.8360762203289747
Cs 11.389831067942689 21.775910174546482 15.93309769207437
Cs 20.932695957427473 21.17214934069332 19.370692518950282
Cs 21.081517524446248 15.494273064996387 19.6402826026229
Cs 16.833665749091345 19.049098389108288 16.537612726844905
Cs 3.8658242844250994 17.481089316690298 19.351235154781023
Cs 16.550542400819317 1.7098429750394568 15.13198555730595
Cs 15.751471547994724 14.199203510051566 17.88001615121678
Cs 12.07787254378117 16.677561146364464 14.691709184424749
Cs 0.14351983852088443 18.552938556943094 15.402520912012776
Cs 3.986795253278486 -0.01690342386145812 17.10809358433236
Cs 2.801749917117349 13.785440459067678 15.759118025679266
Cs 20.035123296367544 13.095605979553836 15.076862241388953
Cs 21.854391734932058 2.250567759832016 15.383885541317815
Cs 14.323168355649184 20.42492407791632 11.416922089120163
Cs 17.35656931002781 16.19659286120465 11.774477198662884
Cs 5.716614338688441 17.78895395709063 14.061394311189186
Cs 19.608400156073568 21.093153567277884 11.802913572663032
Cs 0.5377385808786624 16.175941585107633 11.106834378233838
Cs 2.527896600902927 21.337434263413495 11.28212814712433
