37
Energy = -26.67402975 eV
Cs 18.785710292838402 15.297867088832039 6.310292498662061
Cs 18.372727312780043 12.21163828308885 1.4650221259486567
Cs 1.06824594936203 16.08929823364669 2.4284849754954827
Cs 13.947577701571147 14.506508019633909 3.7383662161747964
Cs 1.6179735195075746 10.71826664631954 -0.3034498012403109
Cs 20.38041024045581 20.510458321134834 5.63422905301086
Cs 19.041563523151993 10.999064507441602 17.55512996825057
Cs 14.628614577442454 19.326136092802738 5.909186510912995
Cs 14.499157700074809 14.491262369938598 19.816505643194308
Cs 17.45611456101603 17.73307640782761 1.4727639149049803
Cs 3.484558815625392 11.920872954527834 16.368587394969396
Cs 4.447822323340871 20.38561054830667 2.012063815223467
Cs 21.20131450091289 15.95935989673054 18.64174505674849
Cs 5.102269458940669 15.173361501489023 20.370434213420474
Cs 21.07736599875757 21.200174751721804 0.005815812553650616
Cs 9.500169165019066 16.914277655020488 1.7383404771946216
Cs 16.665446284203288 1.7458726399675575 2.411651313952955
Cs 21.21430954389032 13.964319996192211 13.144873473515585
Cs 4.310959590592755 20.108466703474324 18.370521267683085
Cs 5.100343318609856 16.520772287047933 14.769265499210523
Cs 10.02270137606148 16.626587442469443 17.503382477534107
Cs 15.973791422952889 14.630560440805095 14.616212570273957
Cs 3.35517536286677 3.6053241344960756 20.121489716994983
Cs 16.360388112694725 19.07903996035512 17.316219645565262
Cs 12.76390272654452 20.246721845911743 -0.14124048471342746
Cs 15.53512427128554 2.8071595418960706 18.78476440059062
Cs 0.13506138399812398 19.171511321909655 14.243048166465188
Cs 20.500859372315 2.027198253638929 16.912133521111333
Cs 3.8780701913797597 2.1386620449447165 14.501421822087403
Cs 12.2217628120087 18.375198365215613 12.749916814655615
Cs 19.671439626695026 6.041843978985335 20.657795797427188
Cs 10.83161984378729 0.3158610909094864 16.509699947345347
Cs 17.619778926332536 18.376559486503773 10.698160891329103
Cs 1.4643991286186073 6.903753602196018 16.19202614278058
Cs 15.693109802922102 1.2205084016216767 13.438254206103295
Cs 17.71565140146538 6.274168721454008 15.164906963397963
Cs 20.609834977310857 2.1551478047413464 11.48231717578623
