34
Energy = -22.65548808 eV
Cs 3.9548951808082746 1.9737362574246515 17.918931694120726
Cs 18.26092106449771 23.25579989765156 3.4279792430141613
Cs 20.64273737595863 19.52276722173026 16.56587522080421
Cs 22.5481917348431 5.823242536170621 -0.12256040833748966
Cs 4.930065218114727 21.774218852272213 22.693073645985034
Cs 18.81101119878684 2.412491214854746 22.5688631933838
Cs 2.8107284534789825 2.690220916173531 -0.7999040475920818
Cs 3.4470377617841597 7.431937678715612 1.7270494039757416
Cs 5.278725960676073 11.296479842869251 22.29064183367902
Cs 3.6783742164052495 20.56328515949768 17.788768976448615
Cs -0.28656939542879406 -0.3633828889081461 14.982174465300274
Cs 14.318855173713075 2.76539796014819 1.5968274401761922
Cs 19.511323088387226 1.2069412166480797 8.76353264865217
Cs 14.993678303548053 2.63914774834742 6.754029330845394
Cs 19.483760726639538 16.194896411577133 20.422021579462253
Cs 2.907751112269202 7.035978884534721 20.156752039860578
Cs 18.972007976297743 21.11469218320839 22.130201811699177
Cs 14.05853225711618 23.49518562836795 21.358422370143543
Cs 14.701339440317238 18.17928798198636 22.41713594352724
Cs 9.953437414770226 19.25634171771931 20.815152174533107
Cs 22.942925115215008 23.762207163577862 1.4581572401954932
Cs 5.414365548126682 16.585335846666695 21.252119426536986
Cs 0.4320407916868301 4.027298489846996 4.662157401788254
Cs 0.6708795736790218 13.672628489659736 20.663633987887998
Cs 19.231482467896175 4.344526478813937 3.860940411587862
Cs 15.142948400999437 20.046496844065068 17.512899623993217
Cs 17.11466350577714 22.27961634942603 13.018965358728009
Cs -0.4112600427015084 23.101346380511643 20.17762235278911
Cs 22.547418317233188 3.8838361442694063 18.6861480459904
Cs 0.2541256753444516 18.581518844944547 22.251247722254277
Cs 0.1098547501940627 23.227511783611625 7.016401959819078
Cs 21.605108398860825 20.550994716431024 11.046614078509862
Cs 4.119275358068166 0.2706413414195993 3.69313305258552
Cs 18.43925000593096 0.40937539337934425 17.77055491622532
