30
Energy = -20.31674122 eV
Cs 15.551662864815217 19.464152724048702 10.265197976855294
Cs 1.3671102475396786 16.89111760780803 12.294044465192997
Cs 16.92894106543885 2.0117120977040837 10.202725199165187
Cs 13.468089836943458 14.587925814570179 10.810475463509178
Cs 20.690169752818115 20.781346948924853 10.252823258577294
Cs 10.298727492434697 12.55276899577363 14.795677910110111
Cs 14.00821486551928 17.330554789926385 15.310680490177997
Cs 14.813153703247888 0.21818399839691027 14.621600954950624
Cs 18.67791299720223 15.487314143954626 12.000798482647221
Cs 19.471419102538636 19.49565283048863 15.087239240851892
Cs 15.496306128835318 12.027064898045124 15.047690323897369
Cs 1.8465636789496975 17.361099096592902 17.49042662050242
Cs 19.91522651370829 2.2251550776606845 14.529199962025622
Cs 2.1740090617166645 21.752898722433592 13.855653505559436
Cs -0.005079407523976638 12.812005223091283 15.451847970660113
Cs 18.59517868986661 15.244853587414868 17.613461441511063
Cs 12.807010010493464 11.197422813854274 19.55615087745864
Cs 0.22548749372092353 -0.04923774407515049 18.52788003955192
Cs 18.661144899953847 9.738356915166873 18.38551478390344
Cs 9.481110248564528 15.536781694309182 18.711794111733855
Cs 14.715325785612356 16.00166057312126 20.287634666585756
Cs 20.408711574417627 18.548374829435165 21.260642008517507
Cs 11.905991159413192 20.549514118157436 19.064870983122663
Cs 21.612328167277152 13.207510415218017 21.226313561266394
Cs 17.07524101657529 21.876870690910238 19.197028940771872
Cs 16.812202589069955 11.0629912711003 0.40850481957356993
Cs 12.933520709042751 14.134856253645316 2.2664604150426606
Cs 9.856010467602301 17.973428029939953 0.6926148503032736
Cs 14.96717217625088 19.734112045250185 1.3163423352086272
Cs 18.13052095149258 15.54304079500448 2.358088184304131
