31
Energy = -20.66269163 eV
Cs 13.260868195254798 14.882486351249518 17.72761917069294
Cs 16.617045071180755 15.752410696595655 13.974639411520586
Cs 0.7819200662721715 19.949111185896307 1.5012908644918623
Cs 1.12005009973351 21.83305643314443 14.87814246900452
Cs 4.465886116099033 4.751383504127978 3.865189210869053
Cs 1.170834041538316 19.996316177248165 8.169168981766788
Cs 20.203027512485715 2.419049348891816 15.175111189368888
Cs 0.12775461890136916 1.1875882889080456 4.38256127426307
Cs 21.12793917338312 16.52981431891212 5.434149270144282
Cs 18.225388110132265 19.822679983182486 2.5785153676601786
Cs 1.2939274050145595 1.8984681898224203 20.232461686044694
Cs 16.03384648855918 1.480579880535411 18.469216550576533
Cs 21.643684311620284 17.238896987548184 12.064313469877993
Cs 18.32365059381263 20.307415836432135 15.14548077534457
Cs 18.887277030795953 1.6897497704894773 0.9026509874078131
Cs 20.427189761631645 21.387458050648604 19.90442189254161
Cs 19.7623130009578 4.832580986431413 19.66595099340805
Cs 18.365346096984204 13.372262952812212 18.30066889125565
Cs 0.26916540384838883 5.379150230891966 0.9328165380916325
Cs 4.414633521114937 0.8456886649776668 7.49258372896578
Cs 5.296176800040005 2.003003286431789 16.91294861456538
Cs 7.859159214378821 20.74525829602245 15.35181843205554
Cs 9.354457237001295 0.5246795898518437 20.011664005195012
Cs 22.021871117382734 16.98530414986325 17.492018947238947
Cs 3.692471387945463 20.116183001292164 19.449364381550165
Cs 4.958959601209403 0.5277756663630639 1.006414211777315
Cs 16.559204279427668 18.136561351455978 20.231807366431113
Cs 20.661287968846427 15.875166949448774 -0.2261010720336095
Cs 3.7744119621513197 17.41417935866753 14.606330749944911
Cs 13.921019492849684 21.919803730284507 -0.05069871016653806
Cs 12.930647164063299 20.179221515200275 17.067870233592405
