35
Energy = -24.13149022 eV
Cs 15.573240188974287 22.111855585427474 22.898958223737445
Cs 18.757758454937193 7.989938227641037 20.100977944183885
Cs 16.645366109651413 3.072289931229117 21.428544877972612
Cs 19.293649504744547 3.4486980863297365 16.902032867357892
Cs 2.5404198493004513 5.998079103244491 21.076470530369274
Cs 1.9960901420994355 22.61079197530536 3.1798039835938745
Cs 3.6801282134956947 7.848829374666785 1.9588398183320062
Cs 5.46411102988795 2.6587472626771755 0.13993283498334083
Cs 23.174411692385668 7.055702586379825 5.5771335234889845
Cs 20.363935034967717 23.679049684150097 0.6539356573370942
Cs -0.5557529587689939 10.661855316180171 19.977523586957787
Cs 22.244549530689483 8.535369998367912 0.5176447069386155
Cs 5.596097190804658 0.263462302690765 19.157693811329786
Cs 23.28423380880085 6.677518356378509 16.90091851624805
Cs 14.660108553674503 2.256601946771947 2.1204516903035255
Cs 20.4037001231916 22.765674525916467 19.450671823155645
Cs 21.700193513202112 4.107575018859329 21.603498935491405
Cs 21.97129668444589 14.261884831359575 0.2586146211681676
Cs 4.515297936672756 17.031498410516264 20.900877968003453
Cs 4.142660346017396 22.765948368100393 14.244565103835496
Cs 0.6527938259326922 3.6017332372949054 2.013778800943494
Cs 1.205557120711997 0.4007884359954977 21.9596875109982
Cs 0.5351157888918162 1.7149970575812317 16.981556908101073
Cs 5.571969086719529 21.29338854316774 23.44842472480931
Cs 19.172917704847578 18.368391579717077 22.374643088996823
Cs 3.053397921664422 12.374318384928365 -0.8125848321976801
Cs 21.56437797165309 0.7866497590745453 5.471858745491295
Cs 15.725310956791812 7.445373813936075 0.5214880636952824
Cs 21.570361690903194 19.189151218640795 3.311609246064202
Cs 0.7988434485956184 11.956906187065067 3.9937669575586825
Cs 0.12126873638569063 19.718657976901326 22.78724255902752
Cs -0.5387476017700421 15.83099844744091 19.573457182718986
Cs 19.310216550575227 4.648914102677505 2.6831488574702824
Cs 2.6593453945923815 17.031380380310676 2.128064443048002
Cs 1.5907653305201255 20.502319851947178 17.97366917525529
