33
Energy = -22.07432201 eV
Cs 14.585578576384608 18.02380358933435 5.218530535713519
Cs 4.2236239510616524 19.585064051067743 4.7912672444551685
Cs 1.1038789080596958 20.385108343533783 15.013458010065202
Cs 0.02546284428249437 0.14341518602272108 5.899815161493471
Cs 21.74691755587937 13.091286497008678 20.63584454714954
Cs 18.044728207306193 21.601115053668533 7.0129104220644125
Cs 18.959612682247887 1.8963686655061984 3.020730376212829
Cs 18.86060569823464 19.557296571652664 2.0567073293918634
Cs 5.093036505953181 18.711332832377796 -0.5878511686687965
Cs 3.732298458901792 1.7693865279598457 15.401952444581399
Cs 16.785902214860148 18.17717286792105 20.222548078224847
Cs 9.445343628497657 19.48601587208241 2.5834123821630945
Cs 0.5422670658177454 21.22507477896178 1.375524367344578
Cs 19.966930615225113 19.69391495881273 11.558174763999176
Cs 0.4097605939510753 15.981172871559746 2.059607574081334
Cs 9.480546103262784 0.5360823002534031 21.883882408304306
Cs 8.947730650778771 2.7566331677558984 16.942385948624327
Cs 19.295014832325716 0.4169327286443834 21.185130311140245
Cs 11.130845084300377 19.01166463036928 20.232803008699758
Cs -0.990624995291405 18.449498826734857 20.491970246172226
Cs 13.35460816790252 16.109382410596858 0.6993873531630805
Cs 0.13387873064941322 4.675398071433514 18.545585611241037
Cs 0.3923585774666505 3.201368081314533 0.7044293792286305
Cs 18.44457257810198 14.483224176300007 1.2313802877015156
Cs 14.417352496625519 21.742409970126165 0.818221649756991
Cs 21.200673221509508 15.969274384123665 15.981765766017022
Cs 1.9318561807584436 -0.385232514513297 19.818131799558426
Cs 0.28581597037132056 10.033921297157063 16.676506484583175
Cs 5.11432253362145 3.7140691690258087 20.80597804809939
Cs 13.914264175452935 0.26693428934574426 18.595149244827297
Cs 5.217691894551979 0.6832221090295031 2.067642947808479
Cs 19.11991139618958 21.45462783295981 16.521213553929655
Cs 4.852991577216148 6.705811402518161 16.560890110788627
