30
Energy = -21.00323385 eV
Cs 12.92637070569161 2.2195565653876543 12.288891594582342
Cs 17.127489952424916 5.1001400755288 10.159675259873499
Cs 12.846071106328269 2.75048715957004 6.9086264720070965
Cs 14.234436972292858 7.30010389808191 14.517251106587297
Cs 14.774435355392205 13.091945720882988 15.207460871193534
Cs 12.684547033397205 13.787723320470281 10.151084245333896
Cs 11.989473365747756 7.314895963285405 9.548244855866262
Cs 18.179252374393442 15.183185323563373 11.31992638514816
Cs 15.83166953517508 8.494824442721033 6.046806581718162
Cs 9.81431805295778 13.200071629693925 5.747358361035686
Cs 15.184246083384792 18.962642639662818 8.62092554822577
Cs 13.214646812750098 17.903774544804346 13.482930748612723
Cs 16.52990934736223 13.733228375343458 6.450684138416325
Cs 10.310298161164246 18.82476910300365 6.696707676372153
Cs 16.629444048276092 10.29892734329584 11.109459681681455
Cs 8.647641044761553 5.99339416007707 5.228767795660685
Cs 3.6353244949811074 6.417636212054505 7.308676408472055
Cs 7.166626522834006 9.921909313019588 8.882094687812016
Cs 4.6064420613283446 14.239136103878407 7.325983054078431
Cs 7.965428131295529 3.524182430048174 9.913783036658142
Cs 0.4947147829198826 10.728548733361622 8.227077716434144
Cs 9.83773022542098 10.46809887480425 13.185935114236834
Cs 8.237151324302742 16.58506491784809 10.856810239277161
Cs 9.147605595974404 5.5086028489482235 14.758716633039416
Cs 4.800696896236299 12.942228887217363 12.807345267004989
Cs 6.024546500994218 10.046044664246706 17.249576853845184
Cs 9.420138906537955 14.783052639531308 15.707242238988071
Cs 11.35764074328318 10.305898615697542 18.1718730513667
Cs 4.446383442681679 7.429109582723134 12.6730448717798
Cs 5.897364558170756 9.961364960391487 3.4090827816131193
