33
Energy = -23.41191373 eV
Cs 2.4119858963293015 13.833823549101753 17.47614432451597
Cs 20.556445832001607 14.109493537896329 13.13028821459403
Cs 4.441664293463833 15.982691092550803 13.253949295138797
Cs 19.307113320858388 15.045470239075769 19.348106919527766
Cs 2.280232827354887 15.436410316360211 1.2253506213338943
Cs 14.388409733699367 14.875571791409923 21.167399327585986
Cs 15.25373862461643 14.341617103372531 15.260871165745291
Cs 5.896285105015745 17.62557231251185 18.54596376646657
Cs 19.078682273455634 15.462867346538312 4.180701885386698
Cs 0.8419794291024022 18.504389869041834 10.030102259972281
Cs 21.094828426131656 18.569029575793035 15.674005269277824
Cs 4.392240279023114 21.047490613716587 14.252384330407804
Cs 17.068986822421525 18.1201361984046 11.963805387527962
Cs 13.843680580283847 16.93043865423971 4.696919791014237
Cs 11.714690606268396 18.35294520419254 12.875093855351977
Cs 10.492332642110496 15.711406020650118 17.44490871242031
Cs 1.2100084188250195 19.753642823921368 20.16319544513289
Cs 10.868970668944332 19.060676449753476 0.2662294394849756
Cs 5.752725024455479 19.739883796560626 2.154991014483152
Cs 17.36771987559437 19.327806524434695 1.0706092258468483
Cs 20.295504623539458 1.3386011032562832 12.759191183295457
Cs 6.179423120835609 1.3476810414522218 19.473514296862607
Cs 15.333912009767065 18.907301462944293 17.71572889447099
Cs 1.8653877576334779 3.1853912759950784 17.05308464079208
Cs 17.732313990846325 20.184466567956775 7.127333380751073
Cs 15.048476836354979 1.2054057655988204 14.35224145050365
Cs 0.9228224140360194 19.762992168576314 4.302230408856876
Cs 10.251619518963832 -0.18296111728545583 16.866761625131044
Cs 18.803616645284624 1.7373977293388088 18.672497690074454
Cs 1.9974004663193843 2.619573321842901 1.183941203174342
Cs 13.339359624800206 0.5903623194616708 4.235224003919457
Cs 18.532688100530898 2.2880007474573354 3.216865649762344
Cs 13.955249685612575 1.8709611761908123 20.658548838518797
