39
Energy = -28.14198844 eV
Cs 21.154961796641143 10.950311527394108 19.920837295436915
Cs 1.479801931237556 14.766536201504692 2.4408207312201506
Cs 1.7678923042642816 11.44358306143526 15.170686021382535
Cs 18.293833737056932 10.279012592363001 15.177500097631494
Cs 5.975023815492929 17.874243748510978 1.233465260822308
Cs 18.322549920628916 11.760774959073421 2.7144886472803393
Cs 2.088544581990526 19.602364690674523 5.1601980264933465
Cs 3.116343723299694 15.038773680587488 18.9833124637342
Cs 5.85230300503315 20.60186257166205 17.886393781057897
Cs 15.997095680675661 12.328311817805348 19.498984275250837
Cs 18.799786831641253 17.224697671952054 4.90688263803986
Cs 20.592419288842752 13.548028992448362 11.259115544421704
Cs 19.79927081821878 15.699936167409552 16.411894791986533
Cs 4.874566828748027 1.5089796648813443 1.6473868081632028
Cs 2.702505506046376 17.359767571949224 14.247241588545872
Cs 1.4958358696874874 19.630219497552556 20.712362938143933
Cs 20.448696426401526 1.1035753712522824 1.76001847724495
Cs 19.064178350821177 16.43372805939739 21.31282423734566
Cs 15.716811434641079 14.899592384376957 13.567892096094148
Cs 2.4361162087993526 3.240608803681241 18.829776535280267
Cs 1.7811717103530416 3.3754918228546984 5.941741866011697
Cs 20.1825628495365 18.858804459191536 11.142399137274726
Cs 14.250016165630633 16.260672658679304 1.6317297549124723
Cs 20.407343225935087 21.57362892953309 16.46595933158422
Cs 1.4966944340251598 6.348736929610921 1.3623130937744525
Cs 19.0936938511938 0.5270731884293629 7.04397137842086
Cs 13.409941389551749 17.067945068193072 18.034657860421987
Cs 16.386218062476207 21.10179092836329 19.7818184853997
Cs 2.4484803633213854 1.210028750783247 13.16632183903048
Cs 15.723523826837896 20.318831019058752 14.227199896776858
Cs 18.840238224954525 5.575723749496789 20.07818658461023
Cs 15.306548557251572 -0.06343073347392282 3.396514378833184
Cs 18.46188700434311 5.47412278696425 4.019341784332275
Cs 21.370286749852525 5.87877592754045 15.217644815755046
Cs 18.8452595903209 2.6027431393375435 11.86989157265917
Cs 10.82752514789464 20.593209535238405 0.4027934112685844
Cs 15.852192126614188 3.923089404380847 16.133230416299003
Cs 11.470102751408353 0.547848430160746 17.134138494707667
Cs 13.822042254863305 3.6556470590340635 21.292517758935695
