39
Energy = -28.53516833 eV
Cs 6.31504547846369 17.328233084262788 19.62147293676796
Cs 6.559552382009437 1.4260262135813748 17.446353583223377
Cs 4.584520721454024 13.41411754671705 2.155367592382302
Cs 4.33340798717835 0.38280816454509065 1.4372591886513402
Cs 3.7781392995313214 17.96797663785397 14.702511183896274
Cs 3.139909452627904 13.253736159305866 17.4753950567672
Cs 2.8778119834104 17.724853123086362 5.426575031401596
Cs 3.677857888740567 2.097167791104475 12.63281601894339
Cs 1.9918408979974438 5.091253908763168 0.9255654422072925
Cs 2.860259202127142 5.905864636244441 16.812102135577323
Cs 1.0633657693050866 0.779537898209918 17.613159961243134
Cs 20.88697833755996 10.394756268467434 0.2414417666486769
Cs 0.3996585989387153 16.183999720104016 0.5562007515542804
Cs 0.26273893119772185 12.877165055321262 5.652270668820145
Cs 0.5038345523120409 14.198631237260875 11.413277528419583
Cs 19.697198755460047 0.6340755152879644 1.745523205666186
Cs 20.72333045876897 19.83840202359021 11.278509761952165
Cs 19.688063060012336 4.319728860023408 13.506488474683728
Cs 20.484750077371267 9.848762749537574 15.48147574192026
Cs 0.7763635627807141 1.9557094096720542 6.579083153963341
Cs 16.280348219193648 17.625162534025915 20.32023905319206
Cs 18.41135175416999 5.639672206509913 18.791298410631263
Cs 19.42456259314663 15.741997546506411 16.121107816797675
Cs 15.75570233752103 1.5843231399394508 11.007650436287914
Cs 16.144804114941536 17.103132224839666 11.169967401626304
Cs 18.64716022117078 17.9762473734358 6.1597799929880885
Cs 16.16248511024201 11.711055183570332 18.75404803962501
Cs 16.815340572975973 20.62551462682094 15.889114626313416
Cs 16.432633767433753 12.22054561963411 13.131416819612438
Cs 16.70415417953541 13.681084870930226 2.883771612437812
Cs 18.662457964112292 6.196054903316308 3.671520946470585
Cs 16.262550323957242 1.9678118907577153 5.783457007237371
Cs 14.845657362520335 2.352120843994225 0.2558018918438311
Cs 13.389040677285399 15.892209566491664 16.007799950295556
Cs 13.930388653266306 3.9477066730030828 15.753953718109765
Cs 13.665743785573582 18.903745452961193 3.54589681443558
Cs 11.53277487633706 20.49945310794097 13.820736918596662
Cs 11.689336432017507 14.832642587731929 0.21048960284821658
Cs 11.164197294990696 19.98679939449011 19.29579676687856
