37
Energy = -26.80594375 eV
Cs 11.046206005006566 2.651599942354451 0.399140086354345
Cs 15.857974694081273 6.375745364284368 19.960336865708292
Cs 14.48844434190204 1.7064198141570859 17.578788818277797
Cs 15.319959874531563 4.105345046664912 3.5995670698709668
Cs 16.77331484412125 5.705706838823616 14.647916522641234
Cs 12.103293075931315 18.635460339886137 20.50126574857615
Cs 21.03652625039083 6.820492390634062 17.995892900608
Cs 12.62781227792947 -0.30043827896830544 4.770868334088679
Cs 20.133549128178622 4.100427182370523 1.5832444336603742
Cs 17.037608895609374 -0.6895754065697733 0.659777812720747
Cs 0.14635060880696313 5.163550280019922 12.53390339915975
Cs 16.3662008480579 18.094678880759062 16.263642791476915
Cs 20.007948265303728 1.1890499918760922 17.109660969458897
Cs 17.555060362199075 0.7780945282121201 12.245725957484925
Cs 16.492106304512774 14.105463761712166 20.13007398827748
Cs 18.655745391565397 3.987708000384872 7.998903324562234
Cs 14.760462435198734 16.37391594390577 3.4648975240364766
Cs 3.708177709086018 3.200429282359927 16.401702433594792
Cs 20.062289888677356 17.326777681007222 12.253919190851809
Cs 1.5797556520464044 0.39159355053305583 10.64167343181151
Cs 2.103530459632921 2.404770192569019 5.6956042157032964
Cs 4.118399862135416 3.9984454729552783 0.5228427051715278
Cs 18.507230863465143 12.61767798203873 15.45656975552007
Cs 2.019371761646536 20.10478499965822 1.059910709556119
Cs 18.62731386943217 20.247686965786393 6.346900900715457
Cs 19.85074041021756 15.967681619017954 2.67516986790447
Cs 3.044211758506721 19.33076646755897 15.440772160955294
Cs 20.873459315385947 16.911828310344962 18.641178131122253
Cs 2.1459871901570504 14.10374914402371 14.526735037091886
Cs 7.065125666311782 1.0633736499635313 3.999833308492959
Cs 18.78373844546579 9.838296780275645 1.5703131764576408
Cs 2.767328286071499 18.365846789663532 6.229494458647937
Cs 6.793103694907147 20.94919316268858 19.557136352147975
Cs 0.9374200079113788 11.851476453434922 19.468488962173232
Cs 7.388258155186276 17.444136165453823 2.4111567788298034
Cs 3.1920036856671596 14.101122758506646 2.6687488452446417
Cs 4.807393986241861 15.846178392463155 19.162351415409255
