39
Energy = -27.70814527 eV
Cs 12.097335549485427 0.3948038428636931 14.260813440574454
Cs 12.635295273855315 18.390801413319643 16.920564559851936
Cs 15.216650495469548 19.21041810121622 11.828673383230976
Cs 16.6644438521606 1.746900056753632 11.571830669171277
Cs 11.273536048322395 -0.13401608917891933 19.9047453848513
Cs 11.042351654754519 17.99257498799745 0.8165702622139995
Cs 15.461750537679729 3.8884059656905925 16.798895334288595
Cs 16.949342581497646 21.648771924015943 16.41321528635933
Cs 14.775927929307496 15.304501298662181 20.748180024089393
Cs 20.561078741011325 20.69088528531763 12.095066846313355
Cs 17.598189743689474 16.26652909045554 16.002940500292425
Cs 12.758553080038094 -0.010534221104366394 2.4240703214487045
Cs 16.172747962749714 20.33497276098153 21.25380676635797
Cs 20.70093648970499 2.828281058282299 15.044711615568977
Cs 16.26222397748744 2.9554865016619036 22.039183898179058
Cs 15.723044643167203 17.752446794795773 3.2340288698842183
Cs 0.1311087568525414 14.09931050195426 17.190357885053434
Cs 21.770511938153348 19.374422702188586 17.18829658175732
Cs 19.891342607246308 16.03185800590107 20.97676948149283
Cs 2.6734578204814206 0.009212402783125927 14.780290593301181
Cs 4.0156283333459095 17.627158435901055 15.849074144362291
Cs 1.3411809087481081 13.051299258069893 0.407856187768367
Cs 2.5625728450922614 18.141263519613066 21.224807279711747
Cs 4.843653543658821 13.315833633708909 19.091524856839108
Cs 19.76915215563396 14.523171501065095 3.3707087256927415
Cs 20.933510020819625 20.02616526855491 1.5964328455110655
Cs 19.867078751909343 5.903086695639396 19.36800671638183
Cs 21.080137611048944 0.7989196667850631 20.156519357887735
Cs 17.702797828376244 0.40801646992491675 4.317593422028088
Cs 5.427048887315642 22.30387885799628 19.27684563529419
Cs 6.296454922672386 14.952408656376269 1.4658582745070305
Cs 2.2740167099716477 4.027151917128609 18.42342427709396
Cs 19.50388859602888 18.545925884114315 6.991056034400975
Cs 7.933060518951097 17.747662811750054 19.49146929484699
Cs 2.0662985090474333 17.346984277242544 4.092020502288056
Cs 6.419106183162167 20.35186069543191 1.8034969276525035
Cs 20.96182663074599 3.8873705941411587 1.9976490366133537
Cs 0.6510539324702768 22.45680408964488 5.529731035056365
Cs 2.814727526037025 1.4650007447321525 0.9279579730634284
