34
Energy = -23.38838552 eV
Cs 21.61732229254699 19.45140283766199 15.717332172203115
Cs 19.27198870085829 2.219269524868268 15.096877359811891
Cs 2.769837782172868 15.712677531819192 16.836310688103307
Cs 18.68207537087459 16.08277052354196 19.352153470449142
Cs 1.9231717940089383 18.0432783974885 11.421293401334214
Cs 15.575932600192198 2.7455421231750896 19.316566325829932
Cs 2.30908348413063 2.50841657579822 16.56685635695876
Cs 4.104325102552432 6.639041709768786 -2.225863252549652
Cs 3.735293637826676 3.57999672244562 2.0460882257609025
Cs 12.136848569680051 1.6594260756958046 2.2089813253450163
Cs 17.638486020410472 1.1292646663901107 2.0864147516060236
Cs 5.229785473453773 20.137591646776045 15.710339728250903
Cs 17.09983381441038 15.473829770518776 6.7456303070338235
Cs 10.58962728934475 5.387750455956403 20.951360591690314
Cs 19.28277383378199 20.70234454491852 7.009648353898895
Cs 0.7039986272319726 11.444958244613927 19.1696744926263
Cs 0.8558938713766885 21.512837952770465 3.1534815624932877
Cs 19.03217496561987 18.08595136536038 2.3651866300018454
Cs 20.122250364327314 13.781737869438343 14.73689094606398
Cs 1.5015348711950698 16.529148219548947 -0.009047171756292539
Cs -0.6736158994044772 4.11976662292461 21.22084605411503
Cs 15.640198559841057 2.7759818688002653 6.492838436541818
Cs 3.2900947168485692 21.23910923116681 20.55695837769284
Cs 16.008001528672587 20.00769861561573 16.273204766271057
Cs 15.157198117278162 14.990806763584068 1.6867345345968077
Cs 14.23053811413136 19.59066306185079 4.687508392145977
Cs 14.59856036172365 19.709904190485823 21.2404284746635
Cs 1.0828379600294822 16.804534105698828 5.81206151069709
Cs 20.824161347527273 3.87850813514785 5.320484479137967
Cs 7.301105048574515 2.0936760622813386 18.87651250796252
Cs 20.0025612147143 21.24902792994911 20.118503342544592
Cs 18.194499242937 18.168776605404553 11.582060839838189
Cs -0.8943753803152886 13.904172268352761 9.65044564642827
Cs 21.38295532950204 7.183722314907432 16.15691606286797
