46
Energy = -33.03893542 eV
Cs 18.625277044311677 12.716639272998284 4.067405469229278
Cs 16.789244474209323 9.844537137155712 0.12705442582698054
Cs 21.890841498204946 12.138109678441682 22.42447834687447
Cs 13.599694675309454 14.033596593582153 2.257576569034874
Cs 22.010270691859926 16.52205178406055 2.5829633228032893
Cs 18.582271221299617 11.36045334091521 18.108535504249488
Cs 17.075679189379812 18.024922082514532 4.206286357000858
Cs 13.79223964462187 13.022262993597531 19.737332008480273
Cs 3.6542684567107115 15.439330956190075 22.270623583303546
Cs 17.638152873774107 15.694571971430223 22.41926027952485
Cs 21.10449511086404 20.63283696728547 6.384953257452246
Cs 2.2373632509549677 20.562668401494353 2.4167056814466257
Cs 0.8192976689957105 13.391915246456435 17.638810508845985
Cs 15.151291230138208 13.688254510060606 14.624212539539638
Cs 10.754739078978668 16.817799300028522 21.728508939158747
Cs 22.710942869667168 18.297525231503577 20.345335147752397
Cs 12.702095635336608 20.20901279939481 2.312726795464441
Cs 4.555142604300033 17.58653055042468 17.060656051677643
Cs 18.680148919613565 16.451423623771554 17.679041643035504
Cs 16.949719099148567 0.5278870118210908 4.109648932614349
Cs 20.226943707500766 13.387436702104765 13.403641543578079
Cs 20.242735528142653 21.589083949925858 0.6169510470505615
Cs 4.916328767778172 20.91287341013 21.031757601787046
Cs 4.379202921740223 2.2546079492673843 1.3839887930152022
Cs 22.838856989441 17.785041980980147 14.356533559022019
Cs 10.122209733546079 21.869380281132287 20.651569531113562
Cs 22.57194452606848 2.3197496269357822 3.8107875774858586
Cs 13.524574265400185 18.045407826933765 17.216679686625735
Cs 15.81944482415907 20.607480304954972 21.181981452585244
Cs 1.497982859858399 22.276335354497615 17.084461325371343
Cs 17.582379349209702 18.368998234890544 12.932734317751853
Cs 7.383222187853609 22.556367670687177 16.134123725893836
Cs 13.813909490820565 2.317006032674185 22.948567720256676
Cs 5.198530874068076 3.4090003479789406 19.256349756378572
Cs 18.7375410087205 4.778148773307578 1.3713631365824246
Cs 3.9712805129587765 20.78910909024607 12.569738875852263
Cs 22.898572274277413 2.3133951551267438 20.91987304908941
Cs 1.6559946112189392 6.702528643748661 0.14071026032084086
Cs 13.679948829281535 0.41186365054517865 17.08949365959236
Cs 19.004579272859647 21.7164794190107 16.8413050516712
Cs 21.8618227365995 22.660095688856142 12.171987588984267
Cs 17.593268084982224 3.016714833184335 19.46538574112577
Cs 3.4328236227411164 3.129250932062976 14.069513344147246
Cs 2.0470133236130224 7.269083483051617 17.48639490605141
Cs 20.512514863849987 7.244631390597564 20.068845101018454
Cs 21.33323267584678 3.8293371520851442 15.72375960986762
