46
Energy = -32.9993184 eV
Cs 7.442103159227727 17.088432846979167 -0.12986312457143312
Cs 5.088613207234275 20.393563869390977 3.7169028798805317
Cs 3.020574507093451 14.19125399234494 1.7910816900508433
Cs 4.2542972796608405 13.866740374532148 19.6921226826575
Cs 4.527612073721972 15.164429269321362 14.337358586698121
Cs 1.3196646925818776 -0.8910594789532985 8.537417945996348
Cs 1.5022513949556486 17.211611362491837 6.092155364717414
Cs 7.2911014365358255 22.455884291993133 21.778467581106483
Cs 6.4621993765666605 18.622117253531677 17.91173710554716
Cs 2.4492054165758415 18.76097845886062 22.58669970985222
Cs 19.69541408256904 7.153949310245283 7.011384589288387
Cs -0.20875829708186527 4.2074060615524855 4.041592242705616
Cs 19.971015604131598 19.56552240280111 7.459910442762315
Cs 20.799876810724093 16.551769206188283 2.4684828463905357
Cs 3.8316175526413465 1.796484418925292 1.5020615589577457
Cs 22.604665293352692 21.79679720765822 3.3203709444905614
Cs 21.966599356190653 13.858946593622488 21.21820900036703
Cs 6.49100740880136 0.5630051070220857 16.408792607970597
Cs 4.376733327553706 4.259540029750953 19.853242553578383
Cs 23.027772731173307 16.666868682905697 11.698555930609205
Cs 0.15712050501527852 12.410386750260592 16.130362278151143
Cs 19.71988582869688 1.8025424486333241 7.852050008703898
Cs 3.59868684926365 20.387782738021603 13.125364867294715
Cs 0.6751567999489689 8.26969605338093 -0.4340438041200654
Cs 15.32485734180464 22.481821552513125 6.3476915676053896
Cs 2.1790981249255705 22.628624037181652 19.121607562156054
Cs 18.7460348808753 7.593029961790572 1.947327770200608
Cs 18.34236549728732 2.187776386840638 2.3516414729085997
Cs 16.97994550775838 20.274690254311373 1.9409616033669526
Cs 1.6450006199891254 2.198195716232363 14.577371744600542
Cs 19.46485009270681 16.14294639796796 16.19356545202004
Cs 22.449127747441096 3.005897531137744 22.038500056819537
Cs 20.55976684438792 20.542194079256028 20.96266994128433
Cs 17.211804222957404 16.542238566379698 21.224695773299686
Cs 22.065844004855578 11.300024696163007 3.619157187058009
Cs -0.007106918051804799 6.467801156388678 17.645015191007637
Cs 0.9638761002158244 17.808270706401782 17.367574390965167
Cs 15.044636218411515 4.536076826092473 5.650887464373674
Cs 12.397928632366446 19.840962958214146 21.76716897568544
Cs 16.11856995676117 0.837104235817753 20.9816591949102
Cs 21.221926458157228 21.21708698855837 13.614925359442996
Cs 12.410850455649404 0.6905793714866455 2.0733936898446754
Cs 16.81920438843906 20.41048155431985 17.223359442436674
Cs 18.486277719532506 5.914682303601436 20.379157548146814
Cs 20.10386363394491 1.7895977572467687 17.240416078689726
Cs 14.188347098464456 5.370710992482312 0.542321070106823
