40
Energy = -28.75009061 eV
Cs 21.657741332688033 6.715336976646619 19.411647404588525
Cs 3.8302923444605117 4.331177761564067 21.777327459865703
Cs 19.425962949284205 3.7891704781144737 15.18633957256453
Cs 2.9109829572993293 3.424952401625916 16.35911703005455
Cs 21.00338945361459 3.766506787470707 1.976859069597718
Cs 17.1915895582748 2.904331021722318 20.19885592699214
Cs 15.084791555160985 0.2451402831378788 15.969151731225717
Cs 0.10283285137401973 1.0435920521464948 19.869224872986603
Cs 0.7718946170574699 1.3159445185764136 11.750817600349372
Cs 18.12216523250541 21.515239675950582 10.810165201182024
Cs 16.240636230491845 1.3204955572501549 3.0073287845157264
Cs 5.8056080261222 21.812565652631296 20.058559429221862
Cs 3.4319048608069203 20.332949657192206 15.196733899102087
Cs 20.736786803060014 0.7980343231065046 6.354875584522682
Cs 2.762127440526262 21.791934628452694 2.4867970245356075
Cs 12.66721564935126 19.675999996771782 3.548260084202307
Cs 20.340424937252635 19.802583504812308 1.4792124878924793
Cs 20.223065685979325 20.750835397826275 15.961593220331173
Cs 16.11125383239964 19.294833111421397 20.830839581887187
Cs 1.6025229949761794 18.222847191852004 19.581795725185685
Cs 0.2616674946528255 17.96835957582688 6.487185595030963
Cs 12.041241847271117 0.25698032759542444 21.104696736004527
Cs -0.13297473464002127 17.951223074101073 11.87304897306015
Cs 12.535085990811984 17.9548522652959 16.912159018767788
Cs 14.034445293602738 18.673638955436985 12.043907892186738
Cs 17.928191594302636 16.515581269228118 15.692170649377944
Cs 2.621137035677538 16.118429386916816 1.8706065176319602
Cs 17.81975563340653 15.974478375958379 9.618917370283805
Cs 17.307518238820336 18.91020960201016 5.573196510579853
Cs 19.468918412404168 15.234159390361834 20.60872856592438
Cs 11.105892731070423 16.77335949662367 21.779107933979095
Cs 0.7993807751687944 14.539088141203516 16.10751132989172
Cs 15.444525101893596 14.942614423749315 2.236319159728737
Cs 20.32959836011936 13.987775764837467 3.585085940886745
Cs 20.14328724649292 12.395859912820134 12.297216087106941
Cs 14.654656974269534 13.595415445943118 19.15174183668432
Cs 14.695993262961187 13.455900597001298 13.609446529987235
Cs 0.937922047593753 11.77112152061637 20.89115534327477
Cs 18.76314607550362 10.711410887639671 17.05134750483376
Cs 18.088600307103714 10.03265515799124 0.01947313271689045
