41
Energy = -29.25077592 eV
Cs 5.811561409285178 20.982706407780515 16.00081574376676
Cs 5.5278054839658815 19.561037520919502 21.24313664007265
Cs 5.9054275333534925 14.618980430715533 1.0981030447926905
Cs 5.943491207184129 15.034733505582292 17.80343792983987
Cs 3.997647400611807 16.98494510898264 12.816587096945089
Cs 1.490244110437497 0.5484576760323824 19.169538649826304
Cs 1.7846883960172266 4.432301522545662 15.613053082014169
Cs 3.0243245995578945 17.38457463275764 5.1631480311119
Cs 0.9410523968625125 21.406577411431766 13.509894691879714
Cs 1.672298659379291 0.10536452376143114 2.2115151182599777
Cs 1.7808937541676388 12.114659850480296 20.2700612904651
Cs 1.536173492999049 17.514681262073257 17.54723320854376
Cs 1.7794550480552906 12.151708023761863 3.590212267676595
Cs 20.810944214577894 5.6678347540000225 20.429774144119225
Cs 1.6630887505976437 12.663787089911256 15.052118575147391
Cs 0.8473222775086392 16.832629046164723 0.663709470582096
Cs 20.27307085385416 3.5740174505257665 11.607713747288937
Cs 17.526104922607978 20.86196869959516 12.02273061826114
Cs 19.18299283651887 7.453774798833657 15.748210102183348
Cs 19.13695367364352 2.027554913450454 16.532333141187635
Cs 20.12594839500551 15.018550194955573 5.6570198910211635
Cs 18.070602486466115 17.391321819455477 0.44068944469480537
Cs 20.424304146200956 16.55667300125774 12.990295229564989
Cs 19.706123895890183 20.12333924560036 4.998754729027869
Cs 15.334207000997415 4.131226739046376 13.399607200110838
Cs 18.64028386575927 19.20751243850138 17.54029824971288
Cs 18.756909808160575 0.7208388364326207 0.13848625320744345
Cs 19.069820949267804 12.004126002217415 0.9641809846499947
Cs 19.053767611001696 13.785393824964626 17.799398000231875
Cs 15.182088727579957 4.153104572188905 18.922408659805402
Cs 13.504241120037639 21.740460011989917 15.421161279185187
Cs 14.191953644410317 20.401201329849 20.543218418594122
Cs 14.229735604996089 14.360758409614881 20.21408392152057
Cs 15.28080474394285 14.769240215676326 3.8514516367498426
Cs 14.766978992579508 16.556078015920423 15.337759654087467
Cs 13.91896198648307 2.8866991647016595 1.645606999439817
Cs 14.492290679596799 20.14502903019885 3.8625356215864795
Cs 10.222571652428712 1.9081440325804064 18.77316902567398
Cs 9.945850218543425 18.350456262946864 18.481352812419864
Cs 10.844453473995625 16.57397305190692 1.546779528900837
Cs 9.80291080851854 21.658627027142675 1.388904186765546
