47
Energy = -34.17736396 eV
Cs 11.0343323703107 19.88804564996597 20.982791401617348
Cs 16.762451155471577 1.3456046715810608 4.082152294671253
Cs 16.616069953673406 18.801117691439078 5.714369000568428
Cs 12.771568550339449 21.230890724015413 2.863044859739277
Cs 9.130019363458658 18.52014576975854 16.34765211906697
Cs 19.88761994103856 22.480321048098954 8.054406739256772
Cs 12.798061579316805 14.712263216806612 19.092010961052836
Cs 11.850435336419643 0.5320858079120379 17.153531512729696
Cs 20.0086786700187 15.944703770827616 2.054266048094908
Cs 13.627624969842355 2.030673371074006 21.950558555955396
Cs 15.103270281568749 16.887948517825592 0.4121988096810914
Cs 19.3171230327855 3.1372509903580785 -0.010751325334038274
Cs 21.651200700538844 17.585878538883208 6.970813839433259
Cs 20.736582432157398 21.097589122396716 2.5814490852324803
Cs 22.3350780675699 3.1171133911900153 4.374301784234385
Cs 15.35930873247678 19.08117792434659 17.025833797817903
Cs 17.42303716361627 12.12669069227507 21.38246490833009
Cs 12.403371732902809 15.399184712048715 13.768879175610843
Cs 17.57268106873713 21.122825682067774 21.416137716550434
Cs 12.560254145319952 20.431726971059078 12.532808731683826
Cs 17.155150331420128 2.1534367285147584 17.713038570774284
Cs 2.3158730784033956 21.651567451136984 6.131478811023851
Cs 19.464491442841997 16.344375485062844 19.47082014447546
Cs 2.329193638296158 17.7108454467282 2.3241261171106675
Cs 21.26710347312425 11.194776760757925 17.7095737139043
Cs 16.915389833079455 13.794167246778777 15.683456808091409
Cs 22.348490917613347 0.7883757844181205 19.243060767601637
Cs 4.896400064729007 2.9716480641428245 3.9575978241572134
Cs 6.940806104599874 20.976257834720975 1.7759987808316093
Cs 17.13708499842467 0.10892833136755732 12.808230458698684
Cs 1.650031119742262 5.297637056671982 22.885063179744808
Cs 17.681898904792522 17.834232417241832 11.615527987560478
Cs 20.562759199986147 20.17511957918172 16.05400606783567
Cs 0.6782927032594107 13.391189584008897 22.075963052831554
Cs 20.984560641372976 5.997472520965632 18.800713806755677
Cs 2.221172716190794 0.045173012947405805 0.4693654480536812
Cs 3.143661848595695 13.48442259991057 17.56969782020226
Cs 21.52756425107744 2.5699835388095953 14.183688321754714
Cs 21.933743337622264 15.324430488381939 14.315565563064661
Cs 7.107122243972451 2.9852258203705198 22.067526146527157
Cs 6.000620797653598 16.774732985943764 20.860968127023018
Cs 0.9848093386139636 18.672370885338527 20.166595233906232
Cs 0.08044622122024823 20.190673707641302 11.488016467408048
Cs 3.297698751190353 4.221717992589227 18.011489720539913
Cs 3.545213992403896 18.13819248630591 15.527725566133183
Cs 3.2843494850198383 0.2681166600718516 14.716258684575676
Cs 5.734233662294054 21.79271522020094 19.213808723706652
