43
Energy = -31.06492947 eV
Cs 11.246792845298721 21.708982779749686 17.35893472701847
Cs 14.818514202022133 3.0334505107792578 20.093881970297065
Cs 14.301800536434877 3.0246214841804058 14.694417675311314
Cs 13.45677297868921 21.32515349911128 1.442327523973538
Cs 19.605411633727076 6.312588120545734 21.709508374429063
Cs 14.137794858815447 21.160010401222603 11.261574712772624
Cs 15.989387799976011 19.615425582475634 19.45983120709226
Cs 17.34699326810075 2.237513620190625 3.1725378919153906
Cs 11.502591272192767 17.186278152640792 20.243919704911722
Cs 14.286418151428677 17.351304305679083 14.977011031786295
Cs 11.633289464810145 17.33332594291524 4.243818330270136
Cs 19.729086591654205 0.8863357432747486 20.514994367682164
Cs 16.41169281328449 19.591317348170644 6.352082699032329
Cs 19.05813720070757 4.618076548479645 16.528890790881945
Cs 18.01975611960507 21.575684691234827 15.344853572225478
Cs 0.5411847733618647 2.637450762690206 2.776356058214438
Cs 12.042180433915417 13.119836087012198 1.205148442609944
Cs 18.636598396021363 1.983499138053842 10.856708759079922
Cs 20.4999502221386 19.996843673434466 2.9071828092123426
Cs 19.17889497845773 18.77437386945279 11.00102867046398
Cs 1.7053413238734714 3.8309067916831503 19.452042488746287
Cs 15.5930810539239 13.79421925411125 19.02706234806409
Cs 20.37443712180839 17.181194228963648 20.506630894602594
Cs 2.126952143490209 20.643022187206583 21.05471962514166
Cs 16.38292512227562 16.434577275026335 1.4688318520752137
Cs 1.044946517716939 2.5176159816360983 13.876919754798335
Cs 0.5167981595150695 21.715386644157018 8.468346897802624
Cs 5.543565427440686 1.9643252149544308 0.7799485422668706
Cs 16.28025274402879 10.34254764481146 1.0598822753043433
Cs 0.7946232994170982 20.211228009144566 15.898122325039472
Cs 19.57946737507724 15.750678312079167 15.604743502473355
Cs 3.723970890374072 20.382938807898856 4.240969460171656
Cs 20.649338852109985 11.80218870434862 19.974536086252634
Cs 15.738078852855681 13.925390994670261 5.822286786138039
Cs 2.138714008403871 15.905275130952537 1.581268659826235
Cs 21.32018958936433 16.548816044760795 6.650119379519649
Cs 5.674360213703039 0.7722255354213294 17.58292281914789
Cs 4.896860541398578 21.048321065309896 12.186813554739546
Cs 20.351501126561217 12.976038009687334 2.9204619154632043
Cs 7.008376718416446 19.06239747029635 21.958500187065493
Cs 2.4019487405009246 15.602112130883288 18.011702305135262
Cs 1.9589993334807256 16.79028272990278 12.044936717139054
Cs 6.876043619862973 17.996077644045023 16.43027820209509
