48
Energy = -35.14224174 eV
Cs 11.560234004376563 20.355138556930978 13.660747822948137
Cs 12.033752978517546 19.711436294194538 19.050071405080185
Cs 14.789963442499205 0.9036672375369939 16.491808667614542
Cs 11.485144020795627 15.311489256610374 15.063002467769058
Cs 17.47784882189196 21.731880804452157 12.557669108423319
Cs 15.443670337846642 16.785037275028614 11.15640141627163
Cs 19.949583240454583 3.103149823516678 14.477295793800348
Cs 17.030284590667375 4.9806135523655115 18.899740455885112
Cs 16.253148073157 18.690734578935416 16.369699775516658
Cs 13.185304845538207 1.5650798494639493 21.635817354312078
Cs 21.126424985540794 7.857880590556744 16.845252106607113
Cs 12.769344257707735 14.4950855220899 20.06448748671812
Cs 0.09921956062163673 21.409042096859803 12.14231166815515
Cs 21.006449671241832 21.428551570601282 16.808168900035724
Cs 16.615373151760362 13.50064072365718 15.844933744431874
Cs 21.665250051835905 8.44615419072245 21.98867627204432
Cs 20.331721267570508 16.832203924496174 13.289078178365072
Cs 2.4560004388588528 2.281435640885416 15.498237042148503
Cs 18.69379641683234 3.6126405937981945 0.8112843218124278
Cs 13.635085900248624 18.69330911605771 0.7004260367272375
Cs 21.94105216372946 3.09316407550123 19.592882003109352
Cs 15.955697768943411 22.653283668566452 3.18152946669779
Cs 17.69034964810871 21.8327758223839 20.8432931393248
Cs 17.591652665008084 16.343998512521424 20.686959847282633
Cs 3.160560467460382 6.113997336151194 19.640331772834394
Cs 17.18639842332838 10.63230686230657 20.520771200709508
Cs 1.149304699692477 4.308295765652595 1.785126813528863
Cs 18.482496818053882 20.352219008482166 7.927799819952062
Cs 19.36778233345415 18.8433883239469 2.440322092977795
Cs 22.232688791143843 18.003196312213827 20.479474249095933
Cs 16.22399273896502 14.192009001982623 2.2604173043657587
Cs -0.0032282718906119696 22.246239639938764 0.09493352496220696
Cs 3.1724265839089445 21.32684109333055 18.83688637375376
Cs 21.09783785924701 0.8299433824429364 4.867581067410311
Cs 5.718484516891722 20.7275895009299 13.764609710035753
Cs 21.595251788012312 13.233298448811192 18.370248402921895
Cs 14.363408322203124 17.748833252021004 5.975420291289407
Cs 2.1175926168673387 17.163140256241896 15.773514229333207
Cs 5.2116217066032355 2.0460447031257853 -0.5584976354531124
Cs 21.422178447890566 13.78407032539374 0.9422867505770358
Cs 8.286741479036628 0.1464643346019557 18.114721323785044
Cs 0.41406228940886586 19.277721192106867 7.151438463221114
Cs 3.5867824920692115 -0.19460780206269165 4.104215480155311
Cs 1.9125741000577048 17.820738504252052 2.3151097008578234
Cs 19.41375618615783 15.373306919399557 6.49462671640288
Cs 3.4592611908265924 15.181566767981371 20.815244649547214
Cs 6.494686615628373 19.688686733689536 22.636519301264986
Cs 7.360293636442571 17.502386723957812 17.69919123720738
