40
Energy = -28.20850477 eV
Cs 15.654041685864849 1.834253117921531 0.9027093825285228
Cs 1.4363721704464036 21.671506210286424 5.35375673402872
Cs 20.000877609575817 23.118302525822283 3.4204642381593264
Cs 10.959150467677038 22.598013607743166 1.8151969050864527
Cs 15.731143742383836 20.384534869094285 3.273485340458751
Cs 0.779274254196254 2.2672199124020223 2.0960272807494116
Cs 11.606538625245225 1.9572107236056406 20.751259809766747
Cs 21.118308647946847 18.027644457550604 4.55929554565782
Cs 16.33972569046552 2.480580578655042 18.69992805908539
Cs 20.186860118791945 0.5595895826117784 21.795360134476756
Cs 22.983533601982344 5.091809885752352 21.277185340855155
Cs 2.859245615032737 16.97016110570976 2.879733008884811
Cs 5.376099926108176 22.736430770976717 1.8242643072683231
Cs 15.0045004384071 21.008401745124473 21.37641551008607
Cs 16.933159300970164 15.292414748345411 3.0006129559120094
Cs 0.2555282038394881 20.22251909986674 0.1555159918576558
Cs 4.79790390271106 4.060884735364403 22.82671555467982
Cs 9.91978334044865 20.485364860540813 20.752061816528034
Cs 12.417154216586797 17.090931282411738 0.6355603696898349
Cs 19.082438974422118 18.791971789325682 22.46158025569228
Cs 5.500883707840982 18.813422334367655 22.177815159683853
Cs 6.692102770375332 0.4143507141302565 19.32387506796071
Cs 3.5258872096893095 4.577693132247345 17.75359187834279
Cs 1.8285902558047535 0.23226318847763372 20.50176046019264
Cs 21.642858323104537 14.494041275717903 0.6554864044390034
Cs 13.184700457258884 21.67208744251575 16.612593312031112
Cs 16.29586243396871 14.392958504713366 21.40479725726548
Cs 11.917406210701605 16.35525731976961 18.812792793684988
Cs 21.92238916411921 2.486558688109971 16.85595979506958
Cs 16.42609790954893 17.21579500425103 16.721153370450043
Cs 18.793045859188144 21.634420432342587 17.192839791154963
Cs 0.12812620440591257 19.734510023878194 17.78446144113311
Cs 2.0953504851901914 15.440101675308846 20.99612316314655
Cs 2.9888614680700005 -0.002357636730727432 15.135844377577282
Cs 5.494011007948161 18.939152166495752 16.965469008521072
Cs 20.8630730321534 15.272520230668654 18.78127877121294
Cs 21.797788102143844 22.572014599155242 12.767734768383464
Cs 1.7031771795713457 15.12976641841047 15.671329769311567
Cs 20.763408989411932 17.510953000406634 13.582337354357003
Cs 2.2276183914478698 19.066122866721642 12.382019628735275
