47
Energy = -34.06995131 eV
Cs 7.564476119480344 22.543286879694634 19.956568301584365
Cs 3.8997621018617794 2.8354582673153317 16.05788780703094
Cs 4.0107582812016735 3.7810498907354937 21.27446612163281
Cs 5.259669820382724 20.50531679946677 15.798032485796845
Cs 8.784395006765564 19.17493284419369 1.8185682406699057
Cs 4.0632242084480605 21.852311981334353 1.6096699534117196
Cs 5.398369813216179 17.67843818313781 20.5243373045843
Cs 21.974291304542263 4.1140018535684035 18.81026807227777
Cs 1.4654822685197733 21.744981758110107 19.698095278643983
Cs 21.211785982049218 4.055570472520888 13.50242721093302
Cs 0.13768523816749698 21.855753910810982 14.67214904271969
Cs 4.177143836067187 18.481132434803516 5.513107901040938
Cs 0.9128812457481714 17.173854340998215 17.22077630906675
Cs 21.971994566658374 1.621182105897867 1.1729757971083847
Cs 0.6738806061170326 17.55058703026184 0.7993805853989998
Cs 4.572461985800052 14.322788596980857 2.2945772859173488
Cs 17.27841727122451 5.682725057535106 16.89234669747502
Cs 21.072408363333423 17.412169386956354 11.594432252808542
Cs 21.346293866422968 20.279160486266388 5.089086385775622
Cs 20.659368028065902 0.09137753844754277 9.911556388076319
Cs 18.097787191353625 0.518352814557928 16.6191681798982
Cs 2.137186639635414 13.107538562760876 20.373383367435512
Cs 19.054305459533495 6.473061792153082 0.5472934233461635
Cs 13.936282095887227 6.633581441682328 20.86705706406153
Cs 16.487781276338954 19.72684920209967 10.75322080395476
Cs 20.391186510127408 13.350503185003188 15.383488740603894
Cs 18.652515154361968 2.40505094893305 5.259890039820168
Cs 15.739277552881335 2.121562424561363 12.343137316425581
Cs 16.861710270485865 2.03183301186878 21.607081916167736
Cs 18.360738858035432 18.356663647848215 16.460159168892297
Cs 0.28677615440795345 15.007564515911373 6.065503624460947
Cs 14.583043724205089 4.606442950554726 3.120725647808765
Cs 12.835055682673595 2.292783551552179 17.539002038331468
Cs 20.65451206884397 9.576252738023637 19.32006777269675
Cs 18.875909101574145 19.970217883458854 21.854895952277253
Cs 21.741585783860042 11.878759907520468 1.8687243175890924
Cs 19.336073306892548 14.959308164108643 20.376370019875708
Cs 15.801559375465036 14.990726526823734 13.349521291092255
Cs 13.370145793030426 20.00411194023853 14.973755741937898
Cs 13.463423254752984 20.41118617053147 20.270054588738223
Cs 11.339298090430615 1.6102927024324931 0.5245422220790841
Cs 15.376778540939466 21.326035779833912 3.239262217957872
Cs 15.91488764083326 10.82219265174568 17.2667758904845
Cs 18.59875545671046 16.055809605396753 3.2257934105190866
Cs 14.063178258284273 15.533249374125516 18.488851080956422
Cs 13.91039676760685 16.457590960157905 1.066169296945464
Cs 16.462232297991687 11.333318238920894 0.007181914744537203
