46
Energy = -33.11316359 eV
Cs 10.931723385134534 21.02569705925852 17.390088915998405
Cs 18.990020004505357 17.65523564451667 9.8470259108247
Cs 17.663271988595262 13.763340641616685 13.219304561611679
Cs 14.96378611358735 18.747400632074267 14.009105618406258
Cs 11.397886850083 17.936203386656036 21.93874521154337
Cs 11.94533874089016 15.427326790659128 17.29230075772131
Cs 12.820173840312751 0.9734162032269621 21.700991528242003
Cs 18.867087714361595 -0.1395038064903596 12.270564179291998
Cs 15.394984749069696 1.3298966244309356 16.452005939672052
Cs 16.989715574130326 14.187471529135644 18.21122625402462
Cs 0.25384708208066636 14.536518363345456 12.140992384090852
Cs 1.075798548520301 19.67622099487719 10.800763457371403
Cs 15.74364448367817 19.303216621812833 19.0608706528991
Cs 22.24665652666465 12.83915568680946 17.254361705146792
Cs 20.223149295497983 4.293898841923794 16.310918632127905
Cs 20.10516962562917 18.183439023893516 15.22357678708148
Cs 13.203133489025 15.392645809776008 4.049460961124338
Cs 12.695068268551223 20.587999951485635 3.3887471093423565
Cs 13.752438907801714 12.554167165087394 22.111431011917748
Cs 17.135791985058976 4.182072924445191 20.767511592385063
Cs 20.14306458665767 22.34622465412242 18.489654744780655
Cs 0.9511063111470134 0.25362597095680595 14.798829878843993
Cs 22.11520812196217 7.257893888964878 20.763760811371764
Cs 19.806358001744023 11.715328356159528 21.992691057443682
Cs 16.871748391565944 16.496653958105913 0.6430232488734866
Cs 18.89045765996089 6.3688157479923015 2.689255099652629
Cs 2.8521215226698597 3.558309582102599 18.282010959714185
Cs 2.685068574042493 17.51826124677256 15.941543972219728
Cs 17.94115706581931 21.840073446357447 0.5256648549208403
Cs 21.03536805063478 17.389407091114677 20.486667627086643
Cs 22.245918524911637 2.4172483175296264 -0.006321609951819637
Cs 17.514404997819376 12.008207438282168 4.020511618728773
Cs 15.74612807180569 2.2761277538682783 3.899240088764239
Cs 5.8951104347713335 21.936615620802222 15.786524112119052
Cs 2.5915109239621836 21.04467888444428 20.24035382216724
Cs 1.2173565138258975 5.923209138741914 3.899590866363681
Cs 17.79058480165831 19.28384791316066 4.993600624507244
Cs 4.65581771960417 5.381663454846434 0.05909867467192798
Cs 21.813846735949724 14.97788603916628 3.235052234400285
Cs 0.5361677513070159 19.952428516077948 2.40648628352487
Cs 2.943203423914972 15.768086383179872 21.836091129397317
Cs 20.884671243779515 1.4904497545769424 5.258119474690415
Cs 7.311313668624398 0.5947253945076385 20.950502384888885
Cs 7.067851381030712 17.738071430799387 19.066293462831887
Cs 3.9249774921377676 1.2141591082865932 3.0791843744352065
Cs 6.400958798785422 19.26896288049917 1.6625631471410418
