40
Energy = -28.62482747 eV
Cs 3.9817961487438556 17.143064656168498 13.03959645105665
Cs 21.409005573491257 19.188302619864757 10.288091005800085
Cs 21.39666990197335 14.670701429078234 13.859230131920745
Cs 4.118440511861267 0.13016226617005008 12.761504071863516
Cs 2.84973133984263 15.20408843217726 18.031142207128465
Cs 4.953503994662808 20.026438090536104 17.966160793472017
Cs 21.258647819754607 11.003304458037265 18.2594233307754
Cs 16.747874258231434 17.416004205253937 13.048242077924925
Cs 21.80140143408118 19.737865022167345 15.783076953209225
Cs 16.74880367367681 12.341628353360923 14.42671213102087
Cs 4.384852845158013 17.45281713897032 1.376882089249545
Cs 1.9110490861339673 12.79796145139312 0.7412410707877753
Cs 3.26445237962733 3.0081805549926925 17.286278073514897
Cs 21.386767966450588 2.3366666573372936 13.464413307105163
Cs 18.527640172203938 15.225841863412223 18.82450480637704
Cs 15.962055160691222 9.972864784353675 18.889887542783196
Cs 18.66896229218906 11.801906458990013 1.249106205528397
Cs -0.01898837211587111 18.93908543953776 21.141259227390005
Cs 3.8243627568869907 1.2359401307071234 0.3806389663058668
Cs 16.87505943216528 0.39031356404602774 11.913311349017077
Cs 12.476408716644414 21.26052364563835 15.785105658889671
Cs 20.690349266240837 6.490584790910574 16.468435197073163
Cs 20.703804389757188 2.083686418804968 19.73913716535608
Cs 16.891559961730085 20.15469693020398 18.114854126397262
Cs 21.13196231745535 15.943490481827553 4.2500467082726665
Cs 0.6229647857878016 20.96060044593912 4.460940957041844
Cs 1.9180862440258446 6.977351921398632 20.961222599782413
Cs 16.462681898338307 3.5353588435803602 16.174238293284333
Cs 13.190486755232468 15.897252979918994 16.998567133959785
Cs 13.87171989452864 14.255371078344735 -0.017663305027094
Cs 16.757394921382172 18.388674206005295 1.3589164941076775
Cs 16.186149870093946 14.415373087484012 5.205445097314665
Cs 0.44270529138848985 4.224243642993145 3.190067832964566
Cs 18.119091955983183 1.518560692769205 2.6002290740435203
Cs 18.52338437764875 6.441869757715636 21.55217013940813
Cs 14.292176512433896 2.1743375437811006 20.59543451309514
Cs 17.170492755964162 19.739827362954617 6.734817744253615
Cs 11.523516433460154 19.216986057866418 20.846841468206843
Cs 11.940916691977321 17.265677356140348 4.233217538587411
Cs 13.149086400994452 0.13084511285738512 3.2964519119956117
