46
Energy = -33.15659417 eV
Cs 19.568424516860645 13.67165731747248 6.034816109999818
Cs 2.439475919566837 14.080441248212837 5.14151993387331
Cs 21.97680585967278 17.54639550935776 8.502775360398955
Cs 21.658666874944288 11.996667587807593 1.4424160333591771
Cs 16.526873157262184 14.924009966231969 1.8814273364919336
Cs 17.065930217922496 18.682966503113622 5.819944824498331
Cs 3.3049920182846635 19.71448097440902 6.516401223452994
Cs 22.195244206110136 17.362006795022364 2.8311677899886694
Cs 4.150889971296394 12.497385942101374 -0.03905558548283415
Cs 5.159632735759306 17.729474152214213 2.140480263144879
Cs 20.983279910474565 22.200547501351817 6.099527045079219
Cs 0.060708588550574934 11.425215120099356 19.088103897164014
Cs 19.62571991977086 15.316597402304303 20.316139642053322
Cs 14.471403502806313 16.80225177226871 19.781691438465064
Cs 13.148742077002895 19.653131763397198 1.2342317935429454
Cs 18.685798856287363 19.89851991446708 0.5549577563699142
Cs 1.7720420465090037 16.784528293042953 20.85410213052701
Cs 15.979312112644484 0.7894625049887994 3.6609710535711364
Cs 1.9972444573903292 22.079394078747157 2.0044154351441046
Cs 7.461474878857532 16.509879107694665 20.170246358488903
Cs 4.344756379313708 13.419099752069855 17.19469961603209
Cs 17.06778866871186 14.222555752850152 15.841477431575957
Cs 10.838071916836201 20.714693450523157 19.091895396412635
Cs 12.043859908027517 2.4357134967329057 21.803038244855017
Cs 20.507314461352944 2.2349333978475308 0.9090591578827507
Cs 22.470607403578114 15.851329047475906 15.565689793580379
Cs 4.1841833944654265 18.95865243454929 16.25464956397806
Cs 16.38565967914167 0.5332822683808817 20.32275322595982
Cs 13.94386046742335 19.20583236515105 14.76318004537771
Cs -0.008704810359651614 21.523588578874612 19.745089955276242
Cs 5.601735385069173 21.569570901286568 20.85374567552823
Cs 18.26993633534955 17.737833660974907 11.913017355776923
Cs 18.559119855785596 19.769493780064725 17.16781977361856
Cs 16.238365409924 5.275925012116386 0.9162983728129106
Cs 20.154297941039317 3.092573625282572 17.59979351546138
Cs 2.144385256860416 3.527086973435501 21.102284432727306
Cs 13.759862174549147 1.612912679009273 16.028591169202894
Cs 15.435015048646038 6.088378609426816 18.574949302334566
Cs 20.44212805692508 7.174931053593239 20.979479621290213
Cs 0.0016439228116630828 20.983376661406783 13.115519069086442
Cs 3.0937602503757184 1.5365812924512412 16.201251333280286
Cs 17.876779678754904 0.2532261954450787 12.850482440312634
Cs 16.71768228527535 5.280542082175732 13.530341455691941
Cs 19.47746770328364 8.987284927949252 15.844720158473597
Cs 22.020972404287296 3.949785682993274 12.8191023283096
Cs 1.5991562028363266 6.773614889876206 16.794382193831616
