40
Energy = -28.58819776 eV
Cs 3.3278984679268167 19.337632629018856 13.76621915279911
Cs 21.707781262132382 17.597852487989588 10.192047587148537
Cs 1.068701724058089 0.12080575470022199 9.619293822803913
Cs 0.49678105394340777 14.834918093392423 14.69876857759714
Cs 3.98531735827995 16.824872495588078 18.570424842458223
Cs 2.2752734453542454 2.5273321612457957 14.41764432992245
Cs 18.29358203756607 13.081063774439617 17.493603473257377
Cs 17.936308072357097 21.39329441452017 9.898610538001853
Cs 18.422541740484974 11.197563854805008 0.15468357770552157
Cs 1.7191654032693857 21.642646152833862 18.567780747491575
Cs 20.96186513230237 21.09504000807067 14.426225519510986
Cs 4.9359114858743 20.70049993293312 0.2622820713427848
Cs 17.7673104006632 17.325959926957967 14.02999685870604
Cs 3.7253507876472973 15.496073977533563 1.4649708016156378
Cs 19.889924601168158 3.4725261165703434 11.881724499247955
Cs 0.6488248512534898 12.687023159618352 20.438313026763574
Cs 20.955231052663642 17.329599471088084 18.66687967597391
Cs 14.383789231765794 17.24027818351737 17.939239562628778
Cs 13.885564400890955 12.565237908667475 20.575739463232875
Cs 22.161616673463882 19.238760649206263 0.8070355863329077
Cs 18.150382662944498 21.347274660519027 19.26148041670323
Cs 16.01351658868452 0.6677336383924966 15.092085627882494
Cs 20.547710579701548 3.3874388646771494 17.256946073317632
Cs 2.9634028273955186 3.6005475201137593 21.224063488589195
Cs 10.945464837121246 16.16272591585132 0.2707549833446545
Cs 21.22250162733184 14.424068875850864 3.196346345901389
Cs 17.083754436165364 17.204986185519907 0.02637590397941448
Cs 20.94182725196475 1.841720228494283 0.1875854354710688
Cs 15.212252180177762 13.908207867778403 3.4531969053068585
Cs 1.7244216105803938 18.98072150451554 5.60041480479773
Cs 21.09882887803868 7.209358004368084 20.693398742420573
Cs 3.0117009888994755 1.3837166090543718 3.920273764027189
Cs 13.106135769171127 21.219884282074336 21.21173530805441
Cs 16.213763625129612 3.8698132297274417 20.169500144711755
Cs 0.38808420349057365 5.9035509089989455 3.193057078260624
Cs 13.35381773507542 18.853371437767564 3.9992651082515143
Cs 18.57719808143571 18.56711025101493 5.343854754829701
Cs 16.43130449995358 0.45829664011427557 2.3111953023189615
Cs 20.415937177867942 1.3397037255883133 5.6049973091798035
Cs 17.745278789402224 5.9388313238094 2.3714242458217973
