46
Energy = -33.46151916 eV
Cs 6.07506645353106 0.5360949039850605 15.535354034497612
Cs 4.436914987702578 19.161283603823907 18.48667797094364
Cs 6.114638153479655 0.6753774501963684 -0.8354648074556421
Cs 3.9218046308492767 18.636799129991388 12.975136526314472
Cs 6.242799604686577 18.3737329562922 0.7906287744548696
Cs 3.9061341190550944 14.319331800352717 16.204581028801794
Cs 2.697306851108545 0.2647666398705612 9.84448592485306
Cs 2.439530326091744 3.375757378025115 19.164881308677415
Cs 0.26913145203035344 14.449185157356954 12.019931675545562
Cs 4.049827713186573 21.48349452810382 4.590871658988921
Cs 1.8802469422608945 3.637891199420961 13.7754854534981
Cs 1.7576279782665867 3.116048645887274 1.7553992683944908
Cs 0.2519004456669593 22.079044433250214 16.551409383591142
Cs 1.9091424082119925 16.318166183077963 3.3860864838387843
Cs 1.2087512164483194 20.643946190865684 -0.14058015465689827
Cs 21.862390772697186 11.757722049049185 17.284562229452636
Cs 21.618719770958684 19.587901590021517 12.270647183769267
Cs 1.4725441102231536 15.206824197148736 21.147929071451976
Cs 21.068633799115855 7.119895493715687 20.73285265243145
Cs -0.5299234574332828 17.098571489343588 16.81395998822543
Cs 0.4133548526065807 18.517198372500562 7.585517385650295
Cs 20.25897837108255 1.7604247571500222 11.194879944832438
Cs 21.35447873044734 0.12989626186883438 5.129896736838738
Cs 21.062143588029205 12.42374075577603 2.0359735121783498
Cs 20.26938039559108 1.6171729903085503 21.44632341596933
Cs 19.06118477005736 19.628289102018257 20.03517286441202
Cs 17.41617061905855 21.34445483722205 14.865381213366426
Cs 19.77035732435176 3.6261759013255177 16.52723516047984
Cs 18.242498866480037 14.568490644364365 20.41326420910859
Cs 14.617792395394428 3.496042323521465 15.680301272798605
Cs 19.58438324249711 18.079543928241932 2.552430277511466
Cs 18.10666666764671 15.671975508264277 13.890546568800124
Cs 19.18309582354866 14.864711261799915 7.060993225657595
Cs 19.183666154932023 4.718906062554074 2.8297490685448077
Cs 17.967625517676183 19.99331577433636 8.639066113762155
Cs 14.790715853805471 -0.362873807168217 19.537395656565316
Cs 16.073696126453456 13.774851841866838 2.960402489613493
Cs 11.616786759224894 21.741291387522057 14.858760761702946
Cs 16.600240006277684 -0.13965299049056032 2.2836103537266275
Cs 14.480563551400158 17.426380933826643 17.423103482553586
Cs 15.790813813361828 4.573975403024118 20.934941532310532
Cs 14.535775658547278 18.32237870695453 5.144192979213805
Cs 10.406540247356194 2.5105218605011803 18.831992258746588
Cs 14.053843340223393 17.80742031035003 22.664452626397257
Cs 9.719354962821061 19.713646102094447 19.307983276157906
Cs 11.202789502155762 -0.34835051984222476 0.9734829862942923
