46
Energy = -33.21231649 eV
Cs 4.990490626111402 0.9445212142240131 13.714050392750925
Cs 3.89371264805538 3.4844586861285776 18.800246846847447
Cs 6.172370028818935 21.060997224415615 18.13249817067204
Cs 0.15176408424502466 3.7625704718530772 14.632489181713137
Cs 3.502225448156456 18.134135702628548 12.89968536808354
Cs 6.992779157378131 16.11858537204744 16.538614202795966
Cs 22.482486952450717 7.170725187672767 19.109021722990605
Cs 2.8353470339068183 22.04411678612462 22.442914056879115
Cs 0.2929394118390116 22.020087796634535 10.872895983208402
Cs 5.3725346982756585 17.480785297139168 21.761346979883033
Cs 21.071248516706817 1.8494938907049354 19.273684563362153
Cs 0.6650781172367688 4.038572007483022 0.9480854342312517
Cs 1.6073026879520913 13.430263773072694 14.671355248791222
Cs 1.072532559016307 21.34775038905885 16.39287600147945
Cs 4.847903533315832 19.20826152701207 4.296868991370034
Cs 20.689314729100236 17.73990684398976 13.291178834374827
Cs 17.879830387529445 5.358271848130646 16.65019367695791
Cs 5.094364879369838 12.490327294947697 19.619153851498247
Cs 22.44495515202591 21.640222731869002 5.100679752324119
Cs 18.135717113216675 5.500606771000384 22.16014160100291
Cs 22.555434528821888 17.857399514189684 0.9386057227621422
Cs 18.613131438320053 0.29295998220628783 14.485216829699752
Cs 1.2378052270611115 16.80807005194939 18.417400186457343
Cs 19.196119593093073 22.464934530205742 1.0569635877473562
Cs 13.434254421484482 5.9014874245414335 19.47518580534663
Cs 3.227283550287001 13.84472073079815 2.1617469275752277
Cs 19.053831203752402 19.327607932381913 18.6631527583902
Cs 0.6640040260188748 16.532301760630283 6.3366280728709645
Cs 15.828360960355825 0.8583812329327773 19.55400744207715
Cs 13.16063035105728 1.7339988381621667 15.43792781156167
Cs 22.429678754165213 12.248333876562084 20.554562886226552
Cs 13.032340887663514 2.6539046640650423 1.0591505734922717
Cs 15.207347540506277 18.93350646026143 15.057985411644728
Cs 18.953336739754874 13.971097871087714 16.27397086790291
Cs 18.129617005376947 17.853095717096288 4.029271631089442
Cs 20.42961400380604 12.951904657429296 3.0827821224772665
Cs 18.297107514199457 15.198030086622747 21.379021105021337
Cs 9.413188497827665 2.4252840575908703 19.47747631131639
Cs 15.163980592444553 22.144700041535717 4.460044589936256
Cs 14.772875562997205 19.196900949777287 22.422713939476882
Cs 11.270316851313138 19.878484033770086 18.55464512832131
Cs 13.847117196896143 15.170344540438743 18.41742720914066
Cs 9.119689682065413 21.212311924253658 0.7914820411554662
Cs 14.632889010463053 13.871522791520112 1.8893764568554954
Cs 11.813482704504976 17.877875030274883 4.163710524991377
Cs 10.047500672836733 15.58539511114782 22.029409539556763
