40
Energy = -29.19238224 eV
Cs 7.620026588497285 21.01125364209327 21.271785160805642
Cs 6.429793946570387 15.883877659344037 0.19928911207280098
Cs 3.82600149350102 19.33457590875165 3.2993181320153093
Cs 4.531721993879427 1.7757783647101513 17.441839413212755
Cs 3.3011588548597897 2.055447158632036 0.9630899685761227
Cs 7.158009446062065 17.978190777296945 16.893220834634878
Cs 0.809245717595707 15.200886534972563 1.6483831399214532
Cs 3.8058275579476524 20.544086405515515 13.437208355964147
Cs 2.2008949219379703 6.709866977640843 19.738082339217968
Cs 2.623729546320506 18.942693389468452 19.60161981557293
Cs 0.009144588602355327 2.470878319842938 13.987722361041772
Cs 0.5353154041761019 0.8616082491596846 5.743309488307046
Cs 3.3398077082571636 12.821581738095457 19.312351811751487
Cs 19.717248564127825 18.08400271557075 5.731061717667197
Cs 20.711012847028965 4.792511348431587 1.91492375759449
Cs 21.295128434892302 2.055182497151712 19.1910027841021
Cs 2.085537239388482 15.737080321353176 14.81398829077702
Cs -1.3484421298738796 19.747366220956454 16.194241927041386
Cs 20.544274048547166 20.283221451717623 1.0727860188048577
Cs 20.96443025126951 19.85391076097586 10.838954007977815
Cs 18.423681132299002 6.644821670011908 18.800516453839958
Cs 16.455352001101268 19.394460824079186 19.34255438689024
Cs 15.850635545958058 19.815322899870043 13.711325111465419
Cs 17.147601829960937 14.949917101977189 1.3584563686494746
Cs 19.986234918186994 14.888083889842505 18.733956334733794
Cs 20.144594971689756 10.414892218128555 -0.14425033974342838
Cs -0.012406433867806068 10.27486519406321 16.44816265489803
Cs 16.6808367496745 2.095082716149042 21.44532254434947
Cs 16.674009013105486 2.427111057314879 15.928763349991911
Cs 14.390553183759412 11.091210264640836 20.567098841264706
Cs 15.683751703951703 6.765775307102287 1.6932874162821678
Cs 17.272259337879046 1.652657707793778 4.915905708230605
Cs 18.79658508556889 15.343631332716827 13.29745839989434
Cs 15.100261938943163 19.454400014532478 2.748596679581656
Cs 14.397846388624519 15.493617715180386 16.611579324755002
Cs 12.91723676927034 5.410765822516682 19.188904002747673
Cs 11.648326753630212 17.259174800963873 20.90714549335787
Cs 16.898352980721334 10.965192987758995 16.03555102246813
Cs 11.906371822901212 -0.15457197227133224 17.68610753461789
Cs 11.95396419675769 1.5150871066875007 1.0853509088960127
