40
Energy = -28.41667577 eV
Cs 6.914433209561841 20.26630855262905 15.844842580644226
Cs 4.39768416461643 15.70183626553965 17.182694564714453
Cs 7.89537727970801 1.7299452154147705 19.327683456541028
Cs 6.646811839748888 19.166543469606616 20.915425544602
Cs 5.842167883176636 13.86734563103028 22.113218302798998
Cs 2.003279027971798 11.327356772329425 19.568182118860705
Cs 3.7253547853675024 2.2736058170472977 15.591371199545085
Cs 4.119401771160149 18.098757147822553 3.0545735878220728
Cs 1.2123740562931808 19.59019655790622 15.334126169268949
Cs 5.082568480676357 0.8078042778592642 1.745830702833763
Cs 21.35872704015176 14.890476488914592 16.406017736471217
Cs 1.1178553479832412 17.153374414498565 21.063214392965314
Cs 1.6001139568308205 0.37441851883089594 19.99398020658516
Cs 3.744716528225331 5.328252471368854 20.764964379822143
Cs 1.8500301419141458 21.992870040388844 6.288286593176554
Cs 1.1919687470971378 13.034309442960296 2.4063335020981067
Cs 19.451037062485113 13.190497524556104 21.30330860254413
Cs 0.5239692973634049 6.277951408902843 16.8941041726436
Cs 19.307592716963185 19.71951660739078 7.969567463508143
Cs 21.464560286351507 20.646485887278693 2.1341120097482986
Cs 0.9174109213824457 16.51196785772753 6.6497497754964145
Cs 0.7925316524920322 3.7384913384586427 2.526309177920679
Cs 20.5049644613351 1.5985404178245988 15.592109514429035
Cs 19.231339701988915 2.2628113953760662 5.456166541621013
Cs 18.766408059535294 19.714144400224413 19.443156004742466
Cs 17.97993324279335 18.927129037142347 14.130511839419206
Cs 19.048669578513305 15.971151614003745 3.585394479865678
Cs 16.233734948897897 14.643419735872541 17.32964607371694
Cs 17.709320687429813 6.0028753534601 17.45948491869575
Cs 19.104634918874186 2.650656619427488 21.358171052682682
Cs 21.158057363934976 7.951285384363695 21.56065169296142
Cs 16.306858669069225 20.710004230882408 3.359619387902632
Cs 15.325442419000034 1.188132310373425 16.512287495017343
Cs 14.932161814000526 16.6245145962936 22.21919304368396
Cs 19.056827194031133 7.491817648746305 3.7560305653039086
Cs 13.956598539424965 22.10881344869803 21.430534241743707
Cs 12.910171424208938 18.800307008577484 17.33429408571767
Cs 15.952898861776498 8.931099759755957 21.837973720591062
Cs 15.322453925523742 4.010381414109173 2.2649092456499207
Cs 13.056913755709232 4.809382676794961 19.846440603314548
