43
Energy = -30.61509999 eV
Cs 4.046918635107777 21.411722919647676 16.984922294315403
Cs 4.049365676205991 3.2240382021991136 21.150046475086597
Cs 5.11753806120747 17.507498332691636 13.466194086605691
Cs 6.622994173797626 16.575658463538335 18.657884948702495
Cs 0.9141671588773261 2.882424769786514 16.65546514584437
Cs 6.761298245763462 21.14862468965659 21.29051726081702
Cs 0.542444842291976 20.888568034017315 12.920579285620576
Cs 4.8669136321407755 0.13940514573301188 3.084025599144932
Cs 20.595646350742257 4.432627500990336 21.0609026583136
Cs 0.3839358096169785 22.336513859994753 21.478616476394567
Cs 0.6680737032291282 15.50438455979861 11.585331773115549
Cs 3.3640430578828444 13.087626322003887 16.181373558124257
Cs 0.14424603267495126 17.211995075631535 16.708795876734953
Cs 0.05831630237088181 2.711536221121428 3.0744210466064303
Cs 18.45815490827014 4.161746182614862 16.176506354077524
Cs 4.323328895700162 12.825714102137583 21.674960180866638
Cs 20.118216186477706 21.62702801544534 17.294200482978297
Cs 5.6515571878213775 17.37078574305398 2.409666192758679
Cs 2.319343995886123 17.776553374775975 21.26194250347626
Cs 18.041685478986565 0.2610215607629133 12.784147954621666
Cs 18.466070239129674 17.49806910257343 13.325546636120418
Cs 0.6630921980075095 19.679249471799395 3.7640713727561437
Cs 15.043737414468053 5.940455995860397 19.638822271985973
Cs 19.790557691410598 17.919804277309336 21.419345532404204
Cs 20.34866078183947 12.535379911296653 14.81059806382329
Cs 13.579750975296648 20.2961529673354 12.213132696532886
Cs 16.44062198226884 0.6438459231857856 20.497492217316843
Cs 18.6014124740459 21.95014445786578 2.4269688902605977
Cs 0.3308349518121563 14.487048177985178 2.3301480345492034
Cs 15.486391544227272 19.26107476237803 17.252038996336324
Cs 13.485647054462351 1.611104389224552 16.180886335320725
Cs 16.429339069867982 4.04236377410676 1.7617765250034134
Cs 21.855976132995117 12.802671360440096 19.876663659733566
Cs 16.72224568460425 14.279352443748998 18.185431578946055
Cs 9.574880543090527 19.699613163875497 15.751798556940924
Cs 18.607942170870835 17.093520714766807 4.313943851476877
Cs 14.870122722592988 17.767710501845222 0.31128811320114946
Cs 11.026830272831987 3.107519351836194 21.63298367816683
Cs 12.861259116963398 15.576310269080357 14.418070066161741
Cs 17.791768540537294 13.21603242778427 0.67015009095825
Cs 13.076906802168365 22.252533327513873 2.496132974003098
Cs 11.589054022413084 20.74179196977847 20.20410790525239
Cs 11.586292338515078 15.488185756073516 19.54096312000613
