47
Energy = -34.31018628 eV
Cs 8.496464531130457 18.265472608905966 1.1533031080910081
Cs 6.7003987582544395 0.5304051478785742 1.913431260868871
Cs 8.731601140532781 22.29217130365272 20.091522008693108
Cs 3.265335683903767 1.8947343841457334 20.777218757863313
Cs 3.686475924960317 18.86221240863567 3.698645964746661
Cs 7.918175050310831 17.21185606343354 18.854732727705866
Cs 0.82277723787176 6.699109827052624 19.418539905640834
Cs 4.357831443901394 14.776998751647112 22.423436026645305
Cs 3.8254503314616026 19.825579847260975 21.57836143145747
Cs 3.3950204486716027 3.267584654899655 15.717332527803045
Cs 3.025823403604996 0.963082724026906 5.600601518045138
Cs 0.38620985008485736 4.237378827595234 1.7696697301890065
Cs 4.215470978546729 20.933771774925493 16.404148299945156
Cs 1.5067415785465432 0.5387367954453041 11.057400783090856
Cs 2.5770451826500764 15.859886853400262 17.515159568073546
Cs 21.43774468635201 4.369903500662746 13.376840339618019
Cs 22.270792905179906 20.08103917648483 6.9866918706250045
Cs 20.643161189991336 2.585548170570093 20.207227254424964
Cs 19.3947840294078 7.770017383835213 -0.4256128629595848
Cs 22.42687622441041 16.536194818576224 1.2475173098350636
Cs 20.922646773142706 2.1971315867470964 6.44760179901927
Cs 22.27046376126951 0.0673979204855653 16.146922021150218
Cs 22.543355745422144 21.98724593260898 1.7654116173385301
Cs 18.861693335207445 6.9682435764748805 17.33953738609562
Cs 19.274994232226355 -0.43137094583278723 10.928883359896368
Cs 21.866722830630003 19.15430412153235 19.564393664201305
Cs 17.940310652866014 2.199848991457984 1.7903729718016417
Cs -0.0782375388452775 18.592929375900702 12.843187001653572
Cs 18.721910659037523 16.535910063334477 5.457693799620422
Cs 16.949673382464983 2.1564513044626263 15.467220079803647
Cs 17.83312187884681 19.447858480741136 1.029251181479473
Cs 15.176836243180475 3.9714310564241586 20.49184334187633
Cs 16.87479556934263 21.586273707493554 5.798185496774575
Cs 21.87677230330037 12.58190089869771 20.522219059015942
Cs 20.645605099319635 14.491999338053295 15.725349171522817
Cs 16.825425897758844 22.105547050626587 19.855132484089744
Cs 17.544761945342678 13.83082576667563 1.0218849361936155
Cs 18.358469454953866 19.847988349809484 15.362202891127811
Cs 17.10153408359299 16.667344532219513 19.406635386962638
Cs 12.74172018906005 22.82371710804027 1.6237127870144845
Cs 13.665226904077793 17.493326140134357 3.4054509944784286
Cs 16.636814694937765 11.608223719635653 19.014309602097743
Cs 12.18240453628621 14.062120803755645 22.412495953874046
Cs 15.960551396289773 15.585993674815004 13.90641232045553
Cs 13.103280601656817 20.10044686771692 16.133855524132485
Cs 12.76037836321485 18.923250507701695 21.15808080029394
Cs 12.267674402973993 14.729699968533051 17.248300966209296
