47
Energy = -34.14684109 eV
Cs 6.020780029655996 14.839024847505131 19.27734570918047
Cs 19.946556610296195 11.630352627074252 1.071194444430235
Cs 0.5380613702646395 12.432165767541976 19.004968351396947
Cs 2.2557524787503094 15.251407465029535 1.0362526851772966
Cs 6.311952269690741 19.53373829209848 16.475192818170953
Cs 2.8068057659294143 15.513943872377371 14.701706987838614
Cs 5.755172945819244 19.26931464896508 0.2748483906297361
Cs 14.853268008215858 10.442434728088458 1.5987381755709267
Cs 20.289183600645778 16.75419344919872 2.9068749169055828
Cs 2.385727914128084 19.25963049777136 5.492899183790906
Cs 16.4192793659684 14.443867710882222 5.376896550904458
Cs 17.121825441902526 11.65423733733104 19.12686819091091
Cs 1.7199381356520933 18.197726720129275 19.015184446721697
Cs 19.672338594515104 16.640318108301084 20.25692234923134
Cs 19.928654259325818 15.10988665984107 15.24127799501613
Cs 0.5225926318279357 21.104617844219753 0.7818896908275785
Cs 11.362057700808405 14.724570828611897 3.077435696353206
Cs 4.365608632729314 19.388136142952533 11.190241140456004
Cs 3.736232890848796 0.81076888545352 19.38947800616727
Cs 21.5673150101575 17.66923198449677 10.695650694695038
Cs 11.645985401679907 12.701705602950112 20.463535601384393
Cs 4.519458521840155 1.4567528519360087 2.5619779318552562
Cs 19.50559260768869 19.946878511270533 6.554063974550199
Cs 21.80926406047639 2.0030537933146313 4.673974907055797
Cs 0.6801146615463998 0.5102677124603489 9.498980951988854
Cs 14.30373093526083 19.380956434276538 4.056539780941847
Cs 16.20264500309774 17.003422591103426 11.499662911541627
Cs 4.1375571128262765 1.8710267075740983 13.670922584877715
Cs 18.06063303416885 21.68000527402744 1.0736118356223434
Cs 0.4308726751292145 20.852810970526658 14.724220344379342
Cs 0.9012709149247824 4.545302908138711 0.022066578750042917
Cs 15.407761827567585 15.92805031886275 0.13092594960072787
Cs 10.457011513271471 17.95158666447961 20.986100236382065
Cs 17.93951979826276 22.090036611179517 11.122445442805704
Cs 18.18824044037805 20.066595719353966 16.1752362438187
Cs 14.592666042160655 16.179420031992734 17.110753691999705
Cs 20.435346265282575 1.4365530139944942 19.073785864886247
Cs 16.564069412989355 1.737486764873584 5.899227143849802
Cs 2.0369099498403402 5.340015275841767 17.399889751167812
Cs 21.27013021708705 3.336003810573562 13.790054296269608
Cs 14.481987415643713 21.2972042994735 19.70044702703499
Cs 13.268475380161938 20.85135569439234 14.311464110136406
Cs 13.26356168493026 1.7233855831530145 1.7408516991070118
Cs 16.327023215489877 2.7973033832962475 15.160906372256523
Cs 19.537187674958506 6.826276283366282 18.891588431119963
Cs 18.2043049346254 4.69577297581094 1.482652021690973
Cs 14.97156184031667 4.170059571855029 19.937576750218064
