40
Energy = -28.64101279 eV
Cs 20.69408461426905 14.663287517757123 11.353171916930021
Cs 12.592888738245431 20.5748473321395 18.098868966896077
Cs 14.764205710251028 15.61552380140752 19.338587830985897
Cs 18.65572672638737 14.054403092983755 16.277473244648032
Cs 11.481227436198912 1.3900046604504372 0.2647912060114489
Cs 12.552629531430519 4.537439583962235 18.2404594624197
Cs 15.482340423085803 2.0444286909647182 14.769275725701108
Cs 16.998028695199004 14.374635644471809 2.072675983841959
Cs 14.762425355621804 19.176399601142357 0.9984741199107064
Cs 20.710970328656423 11.729011604470438 20.99654482415223
Cs 0.6964176277258955 18.072901785532206 14.354471383158934
Cs 17.828297829099906 19.59302534411524 16.31100873423859
Cs 16.997306082587674 1.5339919667129334 20.13893961718902
Cs 14.511802822610495 5.781853518719451 0.9676767124311636
Cs 20.4087417328853 17.014377258552045 20.518162823933537
Cs 15.89012150521471 1.397215635283703 4.006538599375178
Cs 5.240861195597946 18.637420397167734 17.503206345845893
Cs 0.10332638703214037 15.269801352584448 3.369454501578522
Cs 18.122891383705394 18.554298608240906 5.4970294077478545
Cs 1.7888430451951638 13.687410806994617 16.8465313097141
Cs 3.7231844514094172 15.047421825404971 21.416256102421652
Cs 0.8347373413715189 18.199849140774802 7.994716745276235
Cs 17.804961347884426 6.745019951211951 18.889656517199587
Cs 20.40933704621353 -0.3116506950812174 11.457874633022625
Cs 20.27139351742567 -0.5835190990404674 1.3940962803312071
Cs 0.845326192181272 21.36252735003329 18.376033074706008
Cs 2.927882175864802 19.869970787969603 1.1203893623712755
Cs 21.121074966710626 0.9666637017314965 6.351727060309873
Cs 20.602918783478664 3.011650766389196 15.497740107008296
Cs 3.7102131403882748 -0.1397132777771753 12.818126311153884
Cs 19.590834953421936 4.845288550596739 2.345427576327783
Cs 8.761744060855001 18.48953022716495 21.5453004858004
Cs 5.3574283560434 16.98125904152679 4.415744356611261
Cs 4.274856222689824 -0.2621701242179781 7.29581240419881
Cs 0.5490659492313389 4.014526987812572 20.448589741357708
Cs 3.875808554390944 3.5695908468636013 16.415209068541333
Cs 6.219522656338891 1.1035583211531863 20.56010429756735
Cs 2.880028564970336 2.7574295399668625 2.9021461746414015
Cs 7.711995104068483 -0.27116952058192445 3.4753184774109296
Cs 8.544170576281967 0.9542078820868429 15.738366547443793
