40
Energy = -28.21961906 eV
Cs 11.59417957789361 16.38308845223917 21.227598984579714
Cs 15.145118962566997 12.982185631945066 1.2016016480955158
Cs 12.82100243185676 12.57825877988098 18.11029190080731
Cs 13.922076708373208 17.46189112788617 15.815440117672884
Cs 14.744170500066001 18.40846889318836 2.142448275738727
Cs 14.48684008933762 0.8900160693519648 1.0526875661528794
Cs 14.465885904790609 20.694166574510707 19.73118618825453
Cs 15.552776575548494 0.019056386388485527 14.88532967116339
Cs 20.88167849291822 12.180843042166948 0.23571668639700194
Cs 14.750671248666887 4.636147966703241 19.89457764867085
Cs 17.020634870664082 10.26091118868464 19.469255318765747
Cs 17.3251720931136 15.932064638638733 20.416080142338462
Cs 17.61457861564938 13.905196836227686 15.508159937698071
Cs 18.378594358708572 18.917220411365452 11.90963527529584
Cs 18.231112671595607 -0.4143032173095238 4.568438687698647
Cs 17.932318494368563 5.679768859818258 15.842005687331124
Cs 17.81534513677937 4.603201810500797 2.0134472434810897
Cs 19.737247954531494 20.134367490632986 -0.010964726691783302
Cs 19.066325005334527 16.102530409054737 3.6304381913709807
Cs 19.32118560555005 19.215484880566212 16.775249235302432
Cs 20.681102323919294 0.9784726973100941 13.80515881666001
Cs 22.01644561604993 14.98610026507377 13.406464851539107
Cs 0.26408130625978504 17.001540961434763 19.337080774449127
Cs 18.64094953929488 1.3856968278561668 19.19315327621149
Cs 22.286767214260433 11.485831061003529 17.972319857049726
Cs 1.178993615558332 16.37840575401819 2.026603040236777
Cs 20.011979095116097 6.749355301831302 20.711076310767712
Cs 0.6589759626362478 21.35720979371369 4.181619055827284
Cs 21.912817359735325 3.910558833275264 4.993968322089297
Cs 22.18525215589761 2.0491853896626693 -0.00624764739070757
Cs 1.481447658266032 19.49781740029082 13.666867051039155
Cs 1.0372403358025002 22.43763572883756 18.003650868246922
Cs 3.891057375135946 14.859557852976845 15.803288098815825
Cs 1.7963327693606073 7.178971736872096 0.0016459468791337566
Cs 0.26770168172260117 4.868251443208215 17.16585154855736
Cs 4.309697204125238 14.328805864598095 21.0697576318726
Cs 3.88747022661598 3.005733729068459 2.8212918681990407
Cs 3.490366634735197 20.679065907375325 22.575756287171153
Cs 4.342221501072578 2.971015175645088 20.406221831812182
Cs 5.276770494462032 19.34017602526621 17.849652652272322
