49
Energy = -35.06766167 eV
Cs 0.028362089409501842 5.923292003235119 22.962226612912037
Cs 0.5422934114539135 3.272280024065438 18.057258961644997
Cs 4.930251857015462 3.5716461078870263 21.864903953134704
Cs 2.47479114711063 3.255932229541933 2.0509648560963987
Cs 16.79779550438516 3.5414363877232886 23.78267167601434
Cs 20.371023443142967 5.194727363933395 20.222911277123973
Cs 15.444835849110023 3.0023440109826955 18.77799582624821
Cs 20.489876425456426 1.909079633112985 15.98725303109476
Cs 21.55351903346661 2.114171636757986 1.1868158970132332
Cs 6.5735474946900325 24.475828251785863 2.065044438596601
Cs 4.63555099587388 24.483430138613322 17.495961447044756
Cs 0.7958293166883457 23.927278190433928 13.95538759153948
Cs 0.45175558396859605 0.5702430095846933 22.331758528202624
Cs 11.769255802172932 1.1040126558514205 23.78965456938222
Cs 6.97240985622265 23.641250341166415 21.86206517717971
Cs 19.857958424804913 24.559301555519433 21.158554300104374
Cs 16.669031591243975 23.493124127797905 1.4982113029953603
Cs 23.11904762248606 22.302205334421945 18.1811282778204
Cs 1.4214226814844357 22.633436673894007 2.4829198290024532
Cs 16.2511758033655 23.21966212366424 15.980466735369353
Cs 20.38509054657757 22.220584223643627 12.814077174010908
Cs 10.815526533406402 24.331448025288548 18.183114070161146
Cs 20.78117969266645 23.51844616342071 5.432061500923343
Cs 21.490293207024862 21.063987055094035 0.37061139380105623
Cs 2.601889325517696 20.896858360101845 21.86903554085093
Cs 11.049201738641896 20.711332463195173 22.241684983922465
Cs 22.730968471985765 18.859318417306838 5.476618729271962
Cs 15.280771200014442 22.85315333687055 21.048476671144787
Cs 12.570460406215451 19.69517089675884 2.2154921169743407
Cs 22.946240283991067 17.911571425253083 20.920240804851268
Cs 7.3806891841030975 19.155209114795714 19.012620467131647
Cs 17.518404004087625 19.157905853544293 4.515653105659926
Cs 6.706415542858007 19.00948378196026 0.2831270929288496
Cs 2.61087724896036 19.394245449153924 16.834504797382376
Cs 12.862599618540234 19.21506393526853 17.37014853704114
Cs 18.595109775087682 19.285030102288122 18.622021870430366
Cs 22.555106397862286 17.925732203497486 14.763214430323751
Cs 1.0834151936296172 17.452624245965524 1.0927811095580306
Cs 17.09590769628012 18.04339888700099 13.92198992657614
Cs 17.061374786959455 18.73929139632346 23.51449597752441
Cs 3.8273001637147854 15.845452544231161 21.472953816570882
Cs 12.558637939499414 15.866987614366439 22.154854910666447
Cs 0.9615395264595238 14.367602062000634 17.47157600037606
Cs 15.06013336116584 15.033997168955791 2.05501506787664
Cs 15.297204186611895 14.76056368603363 17.776908656141902
Cs 20.642809086965332 15.593598085924667 1.7658843457861992
Cs 20.381291233606404 14.071177405476723 17.48687917377227
Cs 23.513876099555603 13.101766796255882 22.315945609442633
Cs 18.058474220915826 13.823785082085376 22.1410567128209
