40
Energy = -28.14906995 eV
Cs 15.08032607780414 1.0952451422178706 17.93629799679181
Cs 21.1057609432687 7.283053774756754 0.5668894480703593
Cs 17.53912503553942 4.409329146940922 20.90720362171483
Cs 11.077864194758487 21.64396225582124 20.56708240422438
Cs 13.799684987853086 1.5498243378482963 0.6782598904295841
Cs 22.197156644834273 5.790345648306803 18.514892170689375
Cs 12.919072115337023 19.45182953148072 16.305552934349244
Cs 18.08496973764377 3.6969717400883915 3.4024210807882427
Cs 18.112007296047747 19.8839483677733 15.898726125487782
Cs 20.444151336206257 0.8426079150184335 17.819712334589195
Cs 1.0763651657344284 2.9613941093033174 14.427495845448938
Cs 0.540609982690128 3.9838429371656874 4.09335639432223
Cs 2.864333137400986 5.648166626333723 22.334158576001442
Cs 16.188795384782814 20.325166535446815 21.26728413239054
Cs 15.476414727819497 22.47629269685957 5.175356250490224
Cs 21.38152327864881 1.2137352076842733 0.017679317676459284
Cs 4.393924468968392 5.8789964035531606 17.280833646403323
Cs 11.913186694384933 16.438501236875627 20.266196303834175
Cs 12.334770462702963 18.937037304165433 2.023428467542238
Cs 21.268178861894526 19.202472901177273 20.94827652178218
Cs 5.595991839509384 2.9970787154036205 2.5876960985386686
Cs 7.539357029662908 2.636019423892563 20.65879898058279
Cs 6.006822791766921 1.2358084382731191 15.509446779590801
Cs 2.487538095324812 1.1407641695134692 19.66219579172549
Cs 20.801884891449923 22.21382199844694 4.935966851948117
Cs 16.84788538264094 15.647893476629255 18.781267975026758
Cs 17.83177119217661 18.383097577862884 2.7506231543705706
Cs 15.20905912748053 14.410794655351603 0.5618215464422215
Cs 1.3648653013958032 20.58180412667619 16.05587445150396
Cs 20.443733710918465 14.38229034937253 22.864992826669567
Cs 21.59216204087677 16.027671500845912 16.7206461424498
Cs 3.0029481149562995 20.013616617166445 22.768501288258
Cs 2.94080586586731 22.078018849717704 4.531100796014523
Cs 6.571026395127193 20.305643025079547 18.784997557877652
Cs 7.6977942632268705 21.513965266736736 1.36581218122168
Cs 0.007867754552478392 17.55097204143046 3.8181589191371503
Cs 3.2505714817325964 16.35397471598614 18.734674872530213
Cs 5.34582592736313 17.306225963487314 3.9899975928761493
Cs 2.5644490000814906 14.39303693872594 0.4581238440361401
Cs 7.379218375788482 16.460050075487356 22.373470631077037
