46
Energy = -28.47701266 eV
Cs 10.591357737873565 13.77932744561272 11.768457805233279
Cs 8.096553365087816 4.154540768151105 23.9443569451753
Cs 20.075677042581944 7.930718285165375 3.5750292751951345
Cs 0.7209302798314416 19.761544876340494 2.5013657192771004
Cs 17.358585474261442 19.319075914268936 23.47586555288984
Cs 5.632675793665923 17.69840787242553 2.7632083480915317
Cs 20.407030806392545 6.751740422734828 9.597111665094339
Cs 0.5904349468198586 5.08862603769508 9.579652693810571
Cs 2.6473453362666066 16.88569230791843 6.824927482111549
Cs 6.190266361029548 0.5362673534648317 17.05478326428117
Cs 12.19260892993757 7.898934410270361 23.745803044772146
Cs 18.798091712959867 15.126413488467845 20.570154410326236
Cs 17.896793186258773 6.192125995931401 15.058892078539774
Cs 7.989337849054838 15.81043516102185 7.405051912394618
Cs 15.816063493451 12.913482584948673 24.22459258711733
Cs 1.2098922242568921 1.6675956065459634 19.153574131781607
Cs 15.457426468879229 18.927425923630093 18.892350257110692
Cs 17.160987208922773 -0.36600508216787253 18.169594248086735
Cs 3.032902224694132 2.932674166636415 13.692458025201176
Cs 2.81752798515198 3.1947413447159407 0.08298526000323249
Cs 22.455838254362114 17.881339145195696 6.257482419182373
Cs 15.127811837505757 21.065022451960665 13.778728258492787
Cs 4.771231525858168 15.173607718937811 11.500114119348778
Cs -1.078287221849309 0.4733365720708566 3.068025878338244
Cs 14.761849252979331 10.320744708154974 13.20665128655602
Cs 23.80443378667626 14.590637363023014 21.139797381321124
Cs 0.9083503670730115 15.894687309151776 16.015303084641243
Cs 20.64626293098597 15.841612857986773 15.622074104441301
Cs 3.461267056462423 17.016065276291837 20.59834364708776
Cs 23.124181622796694 4.858435127149149 14.244108800323527
Cs 20.76264572197691 21.25863518018297 1.9172506999733778
Cs 20.750719866223974 3.0232872976546665 19.23804145997231
Cs 15.442234053560904 1.9663933132878917 13.958303605617544
Cs 20.977970823299835 12.158941768051184 0.1265654655885693
Cs 18.89254979936753 16.288361743771844 2.8122939915564786
Cs 5.440726326880452 -0.13005720843610846 22.16165334237885
Cs 20.621630632650685 9.720553296762267 19.75340582205452
Cs 4.620796051813186 23.380053712870144 2.3856482393731193
Cs 0.39242406365182586 23.762609100565545 23.379519882716522
Cs 23.306641972159508 6.8781252496629515 -1.0460668590303173
Cs 15.412111330720641 15.41151971636783 14.544254292639042
Cs 6.565418501385266 20.23317510946305 23.325611176577898
Cs 15.368336335776698 10.91963891577117 19.200178694526777
Cs 24.739526866435142 5.5211523009418615 4.254247692395458
Cs 24.391467929682783 16.30593859432225 11.046880254940858
Cs 17.715908023929153 7.746619309668592 -1.4131506146605246
