45
Energy = -31.7312339 eV
Cs 7.294711739762143 22.62635613784274 23.699469454609073
Cs 4.278885652948425 21.58730540958061 3.763906001052105
Cs 4.169325372075477 0.545716984686664 19.967108489028462
Cs 1.7321796517463268 20.514066892593522 8.03029466282758
Cs 5.485109834561497 19.414120105757366 20.2006354236493
Cs 2.0112571143501063 1.065663389034994 0.6573385861769004
Cs 0.23578694281232376 0.9440349169057652 6.008701644455412
Cs 3.3490017915222694 21.580558331132714 15.682326079064897
Cs 2.6556017749842074 18.086597994871582 0.3950885868085173
Cs -0.13755944413249693 16.75543658488959 4.966299383015809
Cs 21.299454329693777 1.8774634548888107 22.638206424502556
Cs 0.2503818127742328 21.439031669923445 21.163845100215493
Cs 0.6766991064376794 16.239329434406166 19.85637825225062
Cs 22.94022337037243 21.32150917116384 2.277521457060126
Cs 20.656108705825208 20.91652509909096 7.229868895436087
Cs 22.63088593241003 14.356499702013394 0.2806065727750578
Cs 22.77650500356518 4.953019845510732 2.5379611807906817
Cs 23.710973201400442 0.9374252982494672 17.26874045008102
Cs 4.423229932345877 16.235391021999416 16.34820717935775
Cs 19.429605069354555 1.072378279376501 4.142537000969461
Cs 2.4272103538160357 17.797345371486923 12.05170275860101
Cs 17.881883799974553 6.165178523771244 4.276231062197534
Cs 23.057949435843682 22.788067643641572 11.946276115300938
Cs 22.791055249183543 19.56713773910938 16.2136453569521
Cs 15.946315314404545 21.051217687922765 4.954234134418778
Cs 18.909378656450794 6.97694180506261 23.273023655119932
Cs 18.08821580959095 22.237534859986255 23.982995582194178
Cs 23.722814575347222 14.205797858330255 14.88318273380631
Cs 19.146013278790843 17.56562020058141 2.5372196335940562
Cs 21.0584773462303 12.454477531633078 19.692419843636458
Cs 20.008673471914427 18.117724822684337 21.201589796551403
Cs 21.0537158657698 5.355593657889223 18.644096957754687
Cs 15.81693561351678 2.677702963554862 0.7817679555861172
Cs 21.6917805076383 17.425912996526506 10.871906717784968
Cs 12.201243129660583 22.657497697903754 2.1385004153871003
Cs 19.10578293149412 22.81333474169688 18.713688085743733
Cs 19.31432948821789 2.1410476610990936 14.507127440142108
Cs 14.477722022711513 18.519256916154305 23.59228054228174
Cs 19.015622726960412 16.20747674737559 16.09237870258013
Cs 16.36938207002275 3.459318131550244 19.57860242971466
Cs 16.2809935153967 14.587336014831024 20.632466339714224
Cs 13.40529525348336 23.329138548008235 21.165285541950382
Cs 18.23892785450503 21.030997276510732 13.403585492680365
Cs 15.276607578077906 19.294842985212505 18.11361847625394
Cs 14.620197644107954 0.002820020003846767 15.835699553666814
