48
Energy = -34.32888538 eV
Cs 14.37007078292667 14.634425320073788 15.378626736337589
Cs 13.829035056299036 14.88285884396125 20.514543507083943
Cs 13.435512611869191 19.458981246803784 16.829854355141833
Cs 16.836296340991396 19.20407149420351 12.922721462377895
Cs 19.066021016879613 14.097309207377833 13.323551527910064
Cs 18.145886988855544 11.768364820927633 18.408003841298896
Cs 10.688663089669381 19.071445409739585 21.020386063821757
Cs 13.30807564901524 16.69766807941646 2.076651361388832
Cs 14.493650180165123 0.7843118040252947 14.882368090849077
Cs 18.42352651262224 16.970683094179016 18.27242988619455
Cs 18.01685362418377 14.109833968942453 23.430731682534333
Cs 21.953749918667658 18.687270502027946 13.437850374706397
Cs 20.106162452861934 0.07518879823105216 13.242279845945635
Cs 23.26556316933203 13.853917694561467 16.336814446189788
Cs 11.504305812667287 21.69838172223751 1.9633001931062866
Cs 12.551898488401902 0.2639216020120018 20.105887460405842
Cs 17.996538173989357 22.202895623743252 18.019630896322873
Cs 15.911254311228321 19.96501268775963 22.29144091724165
Cs 22.848209812152636 14.225994125840325 21.32019075526423
Cs 16.449725202112116 21.010498220506445 4.168199251811844
Cs 18.035560654070714 4.848493757859401 14.63592945517152
Cs 1.9378201802868449 23.228111260377815 15.652738977563335
Cs 22.743981588216748 20.112543465106175 18.933624171504956
Cs 18.026685234626598 16.071636964500744 4.7270782857033575
Cs 21.697553625829695 2.4834343598627386 18.271293246937944
Cs 15.68042150036355 1.6787438999876911 0.8957945271287151
Cs 20.52502048787734 18.79945886552206 0.5096525566227305
Cs 23.107571023150314 4.552014108529972 13.458434830750338
Cs 3.1105634757745197 18.00127622047682 15.945552456823876
Cs 16.834944501638695 3.7630112189291895 19.68741804988111
Cs 2.597719635794946 18.513082412745515 22.478028665167784
Cs 4.684620474739328 14.636980153773905 19.47648955460183
Cs 2.3244991171837874 0.78663384118715 21.241609696373278
Cs 6.119900647070005 20.76349867452624 19.19903120946021
Cs 21.2863383302096 19.971324024476825 6.5627778351988715
Cs 20.62106501348738 0.24761769822061436 22.73225420511124
Cs 23.126344032144864 15.54945955430619 3.3934444980672227
Cs 3.003144482618631 4.703760748869387 17.267154924998913
Cs 3.765750685810201 13.435639419508808 1.0517342943558805
Cs 21.43266081912139 7.7058132182132555 18.027649035124565
Cs 20.101521425150025 1.4261097126647213 4.301936004582521
Cs 1.3073719027851947 6.8080275584848255 21.813126020302448
Cs 19.997807499814016 5.475805078277896 0.10447131055119109
Cs 7.709534372351844 16.82792348010053 0.531739781167507
Cs 1.016901079812108 21.804878961257774 2.6280520926536513
Cs 6.3722243771222935 22.188723389105764 0.795631011116695
Cs 4.311635813915432 18.142432730872 4.188701366447103
Cs 1.0515301237643884 3.5296295260640465 2.311052403685436
