44
Energy = -31.94132262 eV
Cs 22.21651244263943 1.546227488900652 11.402222491689512
Cs 1.6097160628776321 19.026720576555633 12.7101875641958
Cs 3.3590433829397917 0.5423586348039772 15.944688136256831
Cs 22.240080784020307 7.925313446422159 20.37644647230251
Cs 18.62515766434291 20.2285795296815 11.633394169915686
Cs 17.42384179724603 2.402891750424876 15.009962814445661
Cs 3.7307074572573224 17.96120251140244 18.21728182158345
Cs 3.746408245710046 4.283072656113576 20.242819434405398
Cs 21.750158059058936 3.7574242616741977 17.272032838532752
Cs 6.441857600396072 22.105147900656945 20.386917523302063
Cs 20.90135499239166 15.56310090120878 10.417580392369937
Cs 20.922349218305513 20.797557473743424 16.32997798398573
Cs 17.195921418086332 6.563548624878263 19.561202608847406
Cs 2.141915315234348 7.494856492519052 2.2704156127397743
Cs 1.0715488882365787 14.342362376243072 15.680125935366515
Cs 0.928472186654185 21.98765996524675 20.620571577226485
Cs 15.285154660113854 20.116437000252862 15.82396345437363
Cs 17.70007471816253 0.4054237947795285 20.079008270450643
Cs 21.167866432006463 3.345149552453893 0.5075542794329773
Cs 15.694870433583658 15.151084918303106 12.18369559926413
Cs 19.576866823922217 11.38520602074585 13.40620360903606
Cs 3.6106533414462074 1.7497776171426755 2.3897505867915
Cs 18.63606590173756 7.105672203662405 2.536426248271523
Cs 15.157067786854512 11.231343629583767 16.198590465110033
Cs 0.12346414896776868 4.156043686118895 5.907481224777603
Cs 21.625455538126783 16.648497396898694 20.894169830698267
Cs 19.82646436072208 11.948587420697141 18.766997399748192
Cs 3.4589924123100872 18.757918647793975 1.3565694698089155
Cs 12.360524174852571 21.167778298702 20.231812040301463
Cs 15.242919740989349 3.197096195286263 1.0837754715606174
Cs 20.005275929359918 20.514742338068807 1.8979845317636546
Cs 18.77366396609596 16.19600387559583 15.946778318993713
Cs 2.540186787000405 12.922291445830641 21.42399037075713
Cs 0.6243846727982149 21.010372971899756 6.354579480357269
Cs 16.738921904012592 17.70919181695047 20.641432994929787
Cs 12.99704002418597 15.692955341781843 17.568836583076195
Cs 18.09964492140927 1.6308862365584695 5.365312740227846
Cs 22.38938986186988 15.959190454352637 4.0311230185105345
Cs 20.642095628447397 11.671683063907222 1.4742440643114219
Cs 11.95834879785764 16.483431147733263 0.3816820324115079
Cs 14.631563031014409 20.62591034890606 2.65858332317114
Cs 15.415025306666852 12.198838973384564 21.45138795972957
Cs 18.202926819738398 18.871388299765812 6.706606689811329
Cs 17.02982276861965 15.552547907184346 2.8105951393374595
