5
Energy = -2.00232584 eV
Cs 15.264253126534093 12.946233770185966 11.5680455487309
Cs 14.498302729208346 11.3403268243216 0.9941867067644017
Cs 1.8702186356189632 16.298875124930074 12.97432043013606
Cs 11.248777935775871 15.771574604055383 12.960928974895971
Cs 14.00858437382521 -0.4378146808749217 0.7909494222664729
