5
Energy = -2.03580241 eV
Cs 14.98351594062379 14.15773233971269 4.472892416205276
Cs 18.515479227971486 0.7819302907657238 11.877487015575863
Cs 15.30916950271499 19.07817853408786 15.667692009386048
Cs 0.12439127015829571 15.865967393446127 14.805118550435761
Cs 16.55451172837255 15.569461196602994 18.877077873575885
