54
Energy = -39.87654779 eV
Cs 20.466345108121583 0.6632728596527856 7.282237291262176
Cs 17.481914953362327 19.262898740075 5.953850285635753
Cs 22.52530159327342 19.255069550169242 5.191785324596215
Cs 3.551509519167746 22.528162146351264 4.726456732904324
Cs 21.306456315188175 14.277401472802486 5.898360343268834
Cs 0.8741667393717247 3.4508312538807115 2.9433718855832343
Cs 6.311735992227041 3.0204370722759593 1.9172464032775798
Cs 15.129605533377397 0.42326098366642273 4.254944238803495
Cs 12.783976911813644 18.55879897597609 3.184641505277359
Cs 15.531575607828685 14.582358093024899 6.202691031989362
Cs 4.114637709674941 17.310778725653243 3.68690824612751
Cs 18.82514901731732 4.931734595371034 3.4380532582368604
Cs 19.784994173647963 22.654390090055568 1.7732874000840815
Cs 18.82441387646581 16.765971333212132 1.786550304027404
Cs 3.7114891817426336 6.748176009192546 22.12613004406488
Cs 6.4591403967726055 21.007680820465698 0.39566428464710085
Cs 11.117193395566014 0.27524988282923524 0.4105119534763479
Cs 0.5435483149438194 14.579810709327623 0.9521455506249005
Cs 2.761509960879356 1.5159268490458615 21.115601187381408
Cs 22.513346335207427 8.90756211461899 1.0909676498694556
Cs 7.693211868117607 2.7772055800729056 19.65556060631356
Cs 14.412535317655133 14.02443868522459 0.8224719938546465
Cs 18.133453478754813 10.97008555161726 3.3158006996341434
Cs 15.793921729092242 20.314012705723776 22.272809269705274
Cs 11.129303349813567 18.554301583536677 20.76610472379097
Cs 15.784709077441386 2.743016706226993 22.517155024832046
Cs 0.8585354437962714 20.336762587414224 0.35270713064750747
Cs 19.62160196078964 12.499840760206032 21.324819127872715
Cs 21.2797015574602 4.111425724044678 21.570657373911477
Cs 17.340654643477777 7.971231636997651 21.96216054083769
Cs 3.999841746957573 17.180831276308584 20.605651399962866
Cs 3.7240393156429485 5.52295214796998 17.176860870542875
Cs 20.734238811219132 17.57312385417988 20.172447318094196
Cs 0.8157156373460513 21.12866466375354 18.018558975854447
Cs 6.997704654571715 20.885468037537787 18.25710819596877
Cs 0.8254157505977735 13.626448197432525 18.400762802036596
Cs 12.782639045068658 0.5668060979254972 18.4349966597629
Cs 17.318791636165905 4.414343379899782 17.73217105828684
Cs 15.796452145933214 15.547517291621201 19.105015638430707
Cs 22.25833938971691 8.266903697251141 18.44256794545075
Cs 18.987278865147232 22.516848941958344 19.07479428340607
Cs 18.820851515075525 12.216363798309253 15.938325142891191
Cs 22.385403383716422 3.0022109812780124 16.343076394092645
Cs 3.0081468014530723 17.853640180794347 14.975652575875847
Cs 4.274821364735149 0.7250850297234694 15.111170219146937
Cs 20.30806174261647 17.45808239481326 15.133024754164342
Cs 15.241832192432168 19.759406560406497 16.223285632585707
Cs 0.360159034294067 13.310182130407673 13.202224969356722
Cs 17.7546402548493 0.5715708120933203 14.003356561984718
Cs 14.997480623454436 15.249407837270557 13.736954011922291
Cs 22.65238397350692 21.97269019327241 12.656542714240844
Cs 18.73476724636924 13.814855797813944 10.504195726772776
Cs -0.2863052957434928 17.446833014115988 10.028360077640317
Cs 17.825158162878527 19.23582599697265 10.983934828070348
