5
Energy = -1.91443014 eV
Cs 12.196236638767225 0.4190310221330517 15.101834157365165
Cs 0.5782750378020116 10.593017017065154 14.733298595049465
Cs 16.723097767822004 14.905206170529915 14.394627292198631
Cs 14.49599103326426 15.693022226754655 0.9957924787785815
Cs 17.0711628409169 1.5814610088164311 16.029895069319178
