52
Energy = -37.85690832 eV
Cs 4.449136385136811 1.586136068949206 22.839440024885615
Cs 2.3372270726193554 4.722720775753546 3.006997243591266
Cs 5.769404993868797 19.93895177948596 22.99452629489609
Cs 2.864168356733366 23.117164447037073 3.941612646873365
Cs 3.002652424573529 6.954914721676918 21.54185091776554
Cs 5.2269298521202545 3.0422943285993957 17.99533057147124
Cs 3.9356053234832333 18.11625785855129 4.585227547766735
Cs 21.66334787802747 6.702486612457937 0.37211751973389645
Cs 22.850925729082977 1.1936773636070344 0.5487083604689154
Cs 1.4161356941126397 22.20191735241869 19.697891643879608
Cs 21.550332806588532 1.8341598843632745 5.53749817335335
Cs 1.815663701519797 6.558416925999857 16.073040441554
Cs 6.293604195779041 21.419283102746878 17.732009940385502
Cs 21.533539489261635 8.920075748207315 19.026232443174933
Cs 3.7945876293047083 14.715017750875495 0.6423347825372566
Cs 1.825398076154804 1.0475529378568482 14.589054679938645
Cs 22.319238559898114 20.2022722810866 6.174703138489632
Cs 23.231306605692392 3.406088477926151 19.583132453566087
Cs 17.857531507100198 3.032086073493023 1.9648862670068667
Cs 22.967916211742676 15.475673649325703 3.9367701393613364
Cs 20.73828590388705 23.123447318108642 16.29919926880402
Cs 2.9946516833606673 16.806745101774844 19.455148149259646
Cs 0.4140888918981499 19.310479008222927 0.5104431657504481
Cs 20.44720134504837 4.446428974975325 15.106769079542172
Cs 0.7809435264839432 19.30600784183344 15.066815010230098
Cs 19.456437283176015 23.044941056504776 21.027400838007644
Cs 21.501225002483515 18.11116117496157 19.5861296599049
Cs 21.00850821440033 22.062539054034268 11.012596419588062
Cs 19.280323260148478 21.01163975174782 1.9834547703280831
Cs 19.83914232366273 11.4202168893743 3.5531501307638145
Cs 22.83000592942125 13.100386730214133 22.18205151369289
Cs 16.952113072667185 22.436489269314276 6.339305034014066
Cs 17.990855335322234 4.613995992138632 20.382765913161432
Cs 22.696318274882888 14.19590938817277 15.921442381543876
Cs 21.399936556425477 16.83373905041762 10.633954310727358
Cs 18.888149634455097 16.120140937489634 0.25677182307356783
Cs 17.986165021224853 16.929145503661754 5.758001998277899
Cs 16.562563787190218 0.27324360599853376 12.834550295475832
Cs 14.45514963790246 23.507087608814395 23.248759005207702
Cs 18.516574920591243 18.73720210374373 15.338789110449156
Cs 15.490108441671135 0.5658221430435706 17.97693062378967
Cs 16.16198865648954 19.14009374544694 20.088924352090277
Cs 14.988838814764561 13.264954740655346 2.7659743805373105
Cs 14.322384869933218 18.76204353278142 1.8593028627511115
Cs 18.267349859798042 13.798758820388759 18.78096743079257
Cs 17.59416215007186 10.125663365813429 22.697453229826984
Cs 16.274702432593916 18.77584618537406 10.562332479407738
Cs 17.84050728245757 13.941877104147942 13.259813247315735
Cs 13.118338396289932 20.608469800063283 14.994198248575108
Cs 13.668803790510681 14.595448776290006 21.559249397553486
Cs 11.020315497121265 19.93386463381503 20.361500438717385
Cs 13.796443132998252 15.628645205535317 16.296227411485333
