5
Energy = -2.19814251 eV
Cs 15.609544760506031 15.731255987234738 14.569503642498896
Cs 12.097314067464106 11.807871707282253 16.04872722922048
Cs 0.3971838140202431 11.111178988446905 14.207231823733322
Cs 14.387181551447354 15.862138697962292 9.980898212616623
Cs 10.399250149335776 15.313661274452988 12.943775003444138
