50
Energy = -36.78340145 eV
Cs 7.634344481103527 18.02937448739816 0.9840169492576695
Cs 8.208925191648481 0.5616000364632812 22.560776661159263
Cs 4.467370930787896 20.74201098613181 4.890799188567351
Cs 7.627363474096921 17.813277617551705 18.662344623734658
Cs 3.2689444808575443 15.297243723943318 20.62399437236931
Cs 2.0211308111457136 16.6839854319483 2.4662591711146384
Cs 22.514827164506034 18.853754708673495 7.109702895491788
Cs 3.681579731800415 20.786187170732024 21.58807265352771
Cs 20.452935137244598 13.941134734175302 5.6462493443207835
Cs 0.7962605235682733 1.8873416709708934 7.096685958270202
Cs 21.388189009485796 13.187411620669472 22.738706475891284
Cs 4.645162682198943 2.587513769144175 3.1281491360495632
Cs 2.603311069680294 18.60592769584304 16.377179328276938
Cs 6.537606633960108 -0.16935613347880096 17.38215888552702
Cs 21.697057354929022 14.88493512174932 17.61161426327378
Cs -0.06911145966382097 22.389090785106962 2.3732897730866744
Cs 19.880338395721516 17.935756925754625 2.4240873420576046
Cs 16.590324726238375 17.916057159727547 6.327853757348654
Cs 18.951434723911635 22.627391531407223 6.631558757984862
Cs 21.855628419874275 18.99845133369852 20.780723466650652
Cs 3.5425319316808053 3.2644086212854395 21.039237209606355
Cs 16.529723869730006 13.107810177617985 1.8957812826369842
Cs 1.2314801362682166 21.441325510015528 11.728786576082177
Cs 0.38018607685567735 5.456850727417465 1.762147144277722
Cs 18.861294863122843 3.5422874339069677 3.2591953779946907
Cs 16.64872585363157 21.705148386413704 1.7555123291026653
Cs 16.805594416455975 17.234683285563488 21.301274862126377
Cs 13.112730411995289 17.090658816527398 2.4404024877811294
Cs 1.0820360650164662 1.2357200594250248 17.040853987095424
Cs 16.926468334232386 12.30056508130321 19.407741864814618
Cs 18.43960941732966 7.508087173502103 22.403129489620902
Cs 18.58258176267838 12.161271397180226 14.358520607343294
Cs 21.8853647550787 16.247748993980125 12.310429410773597
Cs 20.648558740134007 1.5044912007457079 21.296963772777822
Cs 22.271042888511378 6.294290853676737 19.23733723728721
Cs 16.570156122790937 21.885455870289817 19.20235385492863
Cs 20.60488846473052 20.73762441166905 15.985701498419024
Cs 12.04183985843604 15.011253051279452 20.36762529476648
Cs 15.015129672216155 3.1207565780084328 22.242009569551616
Cs 16.949691060035278 17.34511790293256 15.953005152431132
Cs 12.002404334478582 20.35879774345687 21.422473757284145
Cs 12.985271379812195 14.33928255559342 15.159079384954168
Cs 20.479168602475337 2.181497096174177 12.555795719760015
Cs 17.751851980160357 3.9767974213608857 17.35134450292699
Cs 16.938799444602687 14.735888133468142 10.365374808754027
Cs 18.766640667173515 20.034599812967812 11.028154690610775
Cs 11.882934760995497 19.774542158452928 16.247490368537164
Cs 15.58120778701858 0.24190542213969535 14.182445105105904
Cs 11.885316648147576 1.9080530732900183 18.162306959788346
Cs 13.654379592025139 18.687029236640818 11.348514264025134
