53
Energy = -39.19430191 eV
Cs 17.47621232911278 13.518044214994479 14.491266802644146
Cs 15.703138811421155 16.936008548342855 10.934699106313746
Cs 12.557939211025076 16.23204271105073 15.967991547164546
Cs 21.0389113009014 16.832911718591163 11.588878573478976
Cs 21.286849063531232 11.611332826475408 20.216151287311448
Cs 21.729101169229978 15.68179362663699 16.80422295844548
Cs 16.391436875422666 14.742388307636185 19.815198020404683
Cs 3.0842674090183357 17.343363112675263 14.476366733163037
Cs 3.2487161279621897 15.02348417983776 20.587259019940905
Cs 0.4378311358247757 14.17082111333664 2.4214368449726846
Cs 17.193927160141946 18.69206232545219 16.26210933849761
Cs 18.387876318235868 21.71794229805282 12.034316292995772
Cs 13.250632577588354 21.426152858289974 13.530184448374923
Cs 18.430134181476138 12.96883404686889 1.507565210909453
Cs 11.756600532141455 20.89668517020754 18.842219548855866
Cs 1.223688024614464 21.305770407819775 11.594071205226085
Cs 11.206488650317729 16.221761777886258 21.44201972965866
Cs 2.667041069162106 20.117610508200244 19.46238390862578
Cs 4.917569633927365 22.53131553036336 15.142709450626397
Cs 21.647239611074905 21.071951073480584 16.60888818885638
Cs 2.3191153887452556 18.845209407608007 1.9244573949363357
Cs 21.007271877555187 17.603078630026733 21.416859536336123
Cs 6.147618872666943 14.889992836368107 2.166561561852297
Cs 16.23999179004603 20.181299325556463 21.30339420755903
Cs 7.496439051460304 18.139293563538345 17.337662487447993
Cs 15.455161792174932 17.15082515488351 2.3952597551376407
Cs 6.968088140494112 19.42174256549292 22.40577559273392
Cs 21.61907533903579 2.60675676530608 13.96697791041119
Cs 11.32281548070795 2.708120858089923 16.247399963112844
Cs 11.608579820069641 20.87226366860442 1.634970521060581
Cs 19.51217406754575 15.848967317778847 6.160653852336282
Cs 7.1072395915068025 0.8221820614337957 19.686533162637527
Cs 16.668605027976174 1.0747624518775014 17.776758292468685
Cs 1.633289077119222 2.4686906809711844 18.567763875743747
Cs 20.346908684267696 0.6717380347150871 21.443681847905584
Cs 16.23053419189432 3.684283533921793 13.51027460269498
Cs 2.019495827544959 17.219470680874405 7.083514065028236
Cs 7.078617990783985 19.38975047145279 4.903626742519948
Cs 15.86992998029314 20.31340194850674 6.763216787492726
Cs 20.12719099304607 19.964064804880795 2.6699457424325868
Cs 2.201906949570511 0.7091700162428715 0.5370008647625653
Cs 12.551056085446252 2.4608410989136686 21.697846137734025
Cs 7.180327300243594 1.3059052949622902 2.4085606884439206
Cs 14.733688090584346 6.261325609326729 18.295745513567383
Cs 20.05169769175535 5.727389977247301 18.025824267412844
Cs 5.151202828345874 5.139579430701431 22.155206448332393
Cs 22.666829575227265 6.115063419802338 22.789199242723058
Cs 16.139118268698233 0.5664867630756185 2.4482967853026607
Cs 21.004782665692233 21.00948548894664 7.518599692767375
Cs 2.8138929932765526 22.74360464430312 5.941556162272686
Cs 17.367501866236243 5.179901122503087 22.77308683265662
Cs 21.014600837798255 2.4406872515518647 3.804847754546024
Cs 2.8665299573902865 4.780402053016492 4.077813830621937
