5
Energy = -2.20181588 eV
Cs 1.2550565034617935 15.873855523836747 14.940851934476765
Cs 14.420786846433257 11.525714850570454 15.431981126723342
Cs 12.980918354092188 0.19774357259133238 0.9663307552138737
Cs 13.064912747794159 15.612142112971924 11.873016014953322
Cs 12.099469932858026 10.826200031821847 11.127643537270751
