53
Energy = -38.70572022 eV
Cs 19.56970329162832 20.98014274747746 7.57984100806878
Cs 21.801962072357835 12.289548489761538 2.327668478277555
Cs 16.299150059230872 14.082759784317197 3.432413553573828
Cs 20.293106244873048 17.40022851886273 3.9822074438614297
Cs 14.907567614387903 19.93429154088811 5.5456104255383405
Cs 1.2470062806412296 20.569643285112427 6.06161034491665
Cs 1.4016350130175357 17.929726473205072 1.2582521129210773
Cs 21.81640747704333 2.485335928016262 6.349098405084314
Cs 5.521156388745986 21.39452506337361 1.2568283980486328
Cs 17.143233346918095 10.076593007202552 23.068250434947295
Cs 16.54942264827413 2.185316473199381 6.339293513178448
Cs 3.9996879814292945 1.785889250216274 5.547857611850339
Cs 21.525634413609787 10.61679846526522 20.277095773861298
Cs 19.19518955615568 15.153136497300276 21.816032735373803
Cs 1.3694688150847982 14.744715874695801 20.30046171184456
Cs 19.173528962843385 22.52277516990974 2.497376748011167
Cs 16.001867090901392 18.74848735186899 0.8013191165834168
Cs 13.424537617400128 14.343563022569727 21.94147595117693
Cs 13.515928619010689 0.826420397248737 2.2466292686129328
Cs 5.796651316619903 3.577556338625219 0.6999784368383406
Cs 6.492186458460208 16.71785024286475 20.691765481474544
Cs 7.299362517512168 22.201538035506747 19.617233767014493
Cs 1.3868738519110841 6.064889137977757 3.4452483020415445
Cs 0.7626794422505357 0.7376829916957239 1.1747575048598375
Cs 20.689203957503796 20.037116273641793 21.36362091288877
Cs 16.560141399387145 12.280561227874825 17.930451991078517
Cs 2.6036714430194627 19.885710202220128 19.589711900441166
Cs 19.466430158001067 4.5664355257065665 1.534080091080095
Cs 15.650002937524937 17.85638433331282 18.71972237000941
Cs 3.156297492223873 1.9265793778930311 19.737876646218165
Cs 0.3963030799385542 5.936931381682717 21.523896474706387
Cs 11.319585087370088 20.004220800598862 21.96166100619858
Cs 21.124755649652595 17.676444540929698 16.85669800109118
Cs 7.02381198376596 18.77022358432093 15.736791774108424
Cs 2.625211123793727 15.883959586140385 15.441204375779003
Cs 16.009638707917606 -0.01682102826158552 20.961179893598302
Cs 21.120178038482315 12.697533244407799 15.316159670714532
Cs 22.097241213842896 16.209386103441684 11.018740782667804
Cs 20.68358523870318 1.8086660570267286 19.47990726761106
Cs 15.175568416107282 5.223141223119754 21.937008808223332
Cs 0.286130534160562 22.383281412770664 16.007461617890083
Cs 17.27401510022522 16.540931901423335 13.650395724135675
Cs 10.897250725492489 2.3502118960520786 20.99059146871692
Cs 5.216506379590413 0.6690222529879145 14.781307997150883
Cs 11.890469319949236 22.069968484400864 16.84229816458892
Cs 0.9365615142020166 4.802682077156414 16.017628331466526
Cs 18.908414178442943 6.735702342012921 18.22220880446321
Cs 2.9103556597754827 19.72463526467579 11.754505653027708
Cs 17.529333642137804 21.797967674181173 16.02877737949792
Cs 15.034445362430116 3.3133021572554813 16.849007719673192
Cs 20.82992633818161 21.098331267758486 12.154304740928216
Cs 1.3806601993139473 1.6612880670830898 10.921614272671265
Cs 19.728596096424692 3.015463130327913 13.810616967219307
