54
Energy = -39.29302312 eV
Cs 5.806037994629508 22.885325979902923 18.11573011155473
Cs 4.2965104277587916 4.429974319523206 17.699268654384
Cs 6.67489392216532 1.7100671557304474 13.629291338459813
Cs 6.4996063091623535 21.60372868228196 0.0038373704421584263
Cs 6.90687590029037 17.718309246301104 18.062193965832773
Cs 2.5410373663996584 1.6079608919791215 22.01786314812478
Cs 7.803504102889205 16.65351130640887 23.11967719064037
Cs 5.4584003485648145 18.7800177157035 4.832171443418146
Cs 3.918101220832949 0.40444981912712835 4.188329729557936
Cs 1.3055304848282019 4.562900139024641 13.272856338723022
Cs 2.1761145237814152 19.4000596766849 19.676353590028338
Cs 4.299884416249323 19.935744013792693 13.955602228735748
Cs 1.025281512015261 0.12262463673836324 16.38025979149096
Cs 3.1277530668095532 14.228385661360017 20.542814831263055
Cs 2.4886008186248114 0.17109336886872994 10.788566616915137
Cs 22.124342403503643 4.552344226908999 17.72569006445585
Cs 1.4543481299687515 15.635573338554964 15.773117221307466
Cs 21.610699111267806 4.707637141208002 22.793113309799
Cs 3.633751046787196 14.601148528206123 2.1848408639655967
Cs 1.795836873641976 19.797108422491963 1.2781254803549742
Cs 0.3664794104352715 21.104911427217743 6.935560204592595
Cs 21.501561815598016 22.55912548208471 21.442005976632423
Cs 0.1145769283447908 16.189505126959403 5.601420170446285
Cs 22.14621685205755 15.523861189876008 -0.0349373055050409
Cs 20.718519262950668 1.1384095850626126 11.587964775888713
Cs 22.284793487168645 1.3013938233016036 3.1179021634502337
Cs 22.025348857713638 19.802242274773093 13.740270708397397
Cs 19.29858167260692 -0.05328504519271411 16.87260810286807
Cs 20.452182748272406 19.792934533077002 2.8883482999773036
Cs 17.434018913752 4.416602218389139 2.7305242412030557
Cs 18.473644158551448 0.13540766388299244 6.504122983474813
Cs 19.49474929920315 18.759724627989453 8.7336727570208
Cs 19.789427217919286 14.862429490170117 14.181163199552216
Cs 17.596612672248416 4.6313412646527 14.806251997749456
Cs 21.36405362971727 12.51607055049512 18.763037606800196
Cs 20.73020809396254 18.009183997716374 18.72855142318109
Cs 18.219003631636152 15.10063675164125 3.7750569184688443
Cs 17.246870218871827 -0.2202418084772462 0.6451045576135923
Cs 17.202127313348804 3.8984872588259 20.162699697972577
Cs 15.512279563098296 0.11829594789754139 12.992393633266886
Cs 16.397965828588244 18.888493064422754 15.486856314507511
Cs 17.71674976301697 12.356275279715245 22.792667606512552
Cs 17.05082006086024 18.11147995856455 22.39010141311633
Cs 15.205574172468642 22.148198705394645 19.40716924403733
Cs 15.489100200233507 19.414726279094616 4.7060130080553675
Cs 16.23004933797228 14.433190613848751 18.3453721039265
Cs 13.402192354198677 0.9175797274729768 4.301790548929372
Cs 12.70997098579292 2.843268273189831 17.0393791799224
Cs 12.918031166134277 2.835981206781306 22.92133338400188
Cs 13.175732178779741 14.986831443563501 0.6507443139573537
Cs 10.935718087961158 21.23893268971064 15.235042795974834
Cs 12.121038029784422 20.437684060263308 0.7965198262363987
Cs 12.139972113915743 17.71625787486237 19.51309442538041
Cs 10.182288415518743 22.762678494051308 20.13805015241184
