54
Energy = -39.30611665 eV
Cs 15.287052983570547 17.007227697974752 4.777987973179233
Cs 17.604493115132815 16.165143955312114 0.10252537519221999
Cs 20.900277727510804 14.196457924951622 3.6119478353394436
Cs 12.324670259248508 16.944851264525937 23.387129849366303
Cs 16.47337468635192 19.598253443546078 20.255361503688803
Cs 19.791642840281863 17.291187990180006 7.561775907086644
Cs 20.889823726250455 17.071204090863013 19.775665877742835
Cs 16.536605243735245 21.930434318770228 6.815030460982818
Cs 21.914795975788653 15.907964515592688 12.892554724467725
Cs 19.799792837517614 19.756421011623818 2.9841895729388663
Cs 11.814392794013031 21.81450093633843 19.975605267410966
Cs 23.62905162054417 17.085525216481553 -0.14542604337471232
Cs 0.13309406062954396 3.172302835037276 2.645030633241013
Cs 0.5417807852133969 17.69235656438172 5.621592474515197
Cs 2.6173687207741048 20.73129358482891 21.690935157776646
Cs 18.651002746752003 0.900454271885813 2.7848746885180544
Cs 14.668905295368932 20.894696167330984 15.496162844112492
Cs 1.8661122319269847 20.440271504915923 13.383392735783936
Cs 21.780627268736225 23.24716072610274 6.519605597084434
Cs 7.8353617503075395 20.29513272905358 22.659466552318598
Cs 19.92839642430031 19.777014096508097 15.587543774278451
Cs 12.1795513640662 16.834888277704035 18.057980265659918
Cs 4.372684577170421 18.491173068516154 2.3285478347902986
Cs 14.125103691678332 1.9659489677994961 16.85110613308616
Cs 16.183136629339366 13.761741591019325 19.944598430446337
Cs 20.533269987345776 3.6357247167157523 22.77152476001488
Cs 14.788559689654145 21.202991554913986 1.380533027482459
Cs 1.8910543954151364 13.08125531419609 1.780353489965888
Cs 17.133028821308837 5.821291308964661 19.234400324096665
Cs 20.626987036109607 22.069364523836132 22.341428220523312
Cs 20.842078536270858 12.053383014315749 22.492055138464654
Cs 18.926675762998254 0.3439318921464683 17.749054691575473
Cs 16.177909322858454 18.5787413721131 10.892279586741681
Cs 16.93450517813936 15.684639673220303 15.24614159505421
Cs 15.869947863222563 0.964455948284366 21.93284893905508
Cs 18.312923873013904 4.414567059486193 14.301986811950917
Cs -0.1543845370074125 7.696245435282327 22.03796032722141
Cs 23.749237952677426 22.17529113837144 17.84070045001041
Cs 4.984140397843225 16.017699303960764 21.633059498816117
Cs 4.848102517865562 0.203966892055458 1.3971032573477735
Cs 1.0694936013285092 1.7349258754253452 21.439841051912317
Cs 17.1627468640713 23.96385194625343 12.071203892906224
Cs 22.541433998998198 4.598852975665048 17.613489715001347
Cs 0.15570449671337624 22.117850018165015 2.041352990919683
Cs 21.343912712908256 12.573410476816823 17.225750225980114
Cs 4.369858897165902 5.196555092113986 23.815314173823598
Cs 1.4658463236917167 12.41918943540302 20.446842736625353
Cs 21.1374427712642 20.751525330302677 10.861988742741973
Cs 1.3608231718967652 16.912108669414987 17.358381155869328
Cs 22.562986733474276 1.2331825786305952 13.462220622653
Cs 3.4830024251145373 1.1614495086468515 15.674695642163535
Cs 5.867924923381786 20.387202307272528 17.34930087582773
Cs 3.6339156431117985 5.56355269692698 18.584983220179925
Cs 6.565734326815054 0.9606995973949917 20.201476478552003
