5
Energy = -1.92445193 eV
Cs 8.04191284541213 11.500975097490056 8.091642128412408
Cs 8.088899624578493 4.6296217822730945 8.038400058087895
Cs 5.191699042568449 8.059013340272887 6.341085386800082
Cs 10.995747734761476 8.09792302112526 6.439706586813013
Cs 8.008210752679334 8.038935564476285 11.415635839886255
