5
Energy = -2.258124 eV
Cs -0.012599420129744078 15.818582360445882 0.26716804667288896
Cs 10.815974864675548 13.432228076519147 14.890956663877883
Cs 16.282927666571027 1.9660122813490621 12.17847558311041
Cs 14.31789255561058 11.133911796028773 1.232791415046755
Cs 14.982730812378366 13.426113944755235 12.080598544872865
