55
Energy = -37.73555383 eV
Cs 20.83457552372324 18.043884604512616 25.363819694802466
Cs 0.2561871658804297 13.747401860219659 25.309962891413225
Cs 2.419901599818338 19.473173680833906 21.743357044865785
Cs 4.140362880843262 13.363630913134676 5.714701069299259
Cs 25.808742726108424 0.048072607889342485 1.3461997762498872
Cs 23.56701806991582 2.2779517212600706 5.273420777869291
Cs 2.24150622214271 3.1768025970151195 3.5825887136330015
Cs 0.1887954385564157 4.315568378723901 8.059052869096389
Cs 4.851217233984605 16.185012951951723 25.584437348638897
Cs 21.40263267924559 4.736881654215923 0.9009599039437245
Cs 8.15433898600266 24.07292904975199 26.76815644304562
Cs 23.822106947043988 3.8744854672572435 19.57726037619755
Cs 25.64229954473637 21.873879710522516 8.47208510642356
Cs 11.701621107943735 5.281677423357874 -0.4917429430415609
Cs 16.67145906770893 24.42489849231713 25.518172412852536
Cs 1.1932126651503379 7.304701140924267 0.19773051550909715
Cs 0.9035421772535789 1.3762095965102175 20.797505326837275
Cs 22.425535130061856 23.22219015661589 25.508699715100075
Cs 7.422482649251344 2.4374601354215737 0.6366264798823514
Cs 3.645385195374511 21.0392040199359 26.424412470235296
Cs 1.4807744768209141 16.855304099556154 2.727782246758576
Cs 21.11430403444152 7.0442859011425005 23.185103508349485
Cs 11.550092392827962 24.241375554518097 22.716633295974255
Cs -0.30471697591952607 22.19701680300353 2.6953549784897146
Cs 15.323581402292346 1.706310441208283 23.010943673728402
Cs 24.892856405051198 7.079848232959829 4.188752228436603
Cs 23.7184944734718 18.557015418401534 4.473809105427329
Cs 25.914448613379086 18.804853249045046 26.099602201733013
Cs 1.0000610653267907 26.04486045384726 6.280141274963908
Cs 23.128032030142535 14.534767710292112 1.4427063651114274
Cs 24.38718087627632 26.832082378222957 9.912846570286485
Cs 3.2835465715170766 8.049959562678614 5.125644416615847
Cs 1.3035601876276253 23.83012329382306 18.842973948032967
Cs 12.418285522569505 0.20382103176236122 27.037990218390412
Cs 4.364572216409846 11.411436740511757 0.884797958826282
Cs 7.622627848684724 20.446276977387384 22.621205535328762
Cs 20.660708646648363 1.2878238691416857 23.66147838091135
Cs 27.20416396627425 24.478072730541534 24.400447641886917
Cs 21.78812692735812 8.513923515495458 17.86458524900949
Cs 18.463902047486126 4.33821124620521 19.496292528291843
Cs 22.73050876732991 24.15987747472705 5.077246690907579
Cs 24.44689318775517 20.481897628037828 21.3464483257258
Cs 24.246487158700873 22.45555450129386 16.12903162056291
Cs 25.18418656104658 3.6184340484286945 24.69696433025606
Cs -0.5346591833928301 11.894121476461363 3.6835881604021075
Cs 3.8379938943640806 25.480055737880974 1.915380330426845
Cs 2.854251954177725 1.9851695509783371 25.59946029028685
Cs 23.865718853673553 9.503414326933287 26.844444333115277
Cs 23.525430446608226 25.687859175833 20.55761351367933
Cs 22.970600498365133 13.573142503568235 17.349666743607965
Cs 24.28698703352163 11.29971250078526 21.819524457823935
Cs 5.03422590198318 25.217334340600416 22.559977813007976
Cs 19.064294403836964 21.560287178712375 2.156438598826056
Cs 20.2472641295876 -0.3298544919933806 1.3208585721300532
Cs 18.8911616220807 16.691830872447618 3.2457298689060643
