6
Energy = -3.01381129 eV
Cs 5.664646619273472 11.254296898304426 9.065979526804398
Cs 6.815497988574242 6.42892500667562 5.528850874090258
Cs 5.530392992466363 6.422583937386239 10.349106864246929
Cs 11.270275177019837 10.378060661427927 6.451510645684434
Cs 11.136040600286778 5.546393148940894 7.734747025435404
Cs 9.98518416791273 10.371778983864653 11.271842609271987
