6
Energy = -2.88854139 eV
Cs 14.373114191601367 1.4650522467190268 3.883509704447636
Cs 0.6581643928620291 15.312874796678125 12.005655146377407
Cs 13.889345866169405 17.271673705006098 18.27650524955346
Cs 0.6756762998698249 0.5488911642033547 2.352949412655866
Cs 15.1294094050773 14.007342829456068 14.850466105174238
Cs 1.0155315632700577 17.962493848034203 16.070822435964253
