6
Energy = -2.99412473 eV
Cs 1.1461699247831914 1.6242812385829006 15.080640921529145
Cs 1.131947166998241 13.621511065820963 14.193031641704543
Cs 15.439200483244703 9.560161321293123 13.090635486596973
Cs 13.886703299070476 -0.0487472057843943 12.877931140210487
Cs 12.679762483831777 12.573721957756524 15.987287431088836
Cs 10.98528674684047 0.2881860935094622 0.010479027598668205
