6
Energy = -3.09641483 eV
Cs 10.946726852768627 13.169653511655591 1.0111719043478518
Cs 14.46584499946742 10.642381827707693 15.011596239609142
Cs 13.123023853180051 15.2374345521879 13.366695914218162
Cs 0.8298396189056534 13.214071877761004 11.814136381625266
Cs 0.727535309295283 1.138780457640085 14.167134775681427
Cs 13.925523844575068 0.6688070884252155 1.0433105313936575
