7
Energy = -3.64314924 eV
Cs 0.004084691610194507 15.891028399371079 0.3929240819860717
Cs 12.929775294811046 16.438433836806073 1.2292675233572898
Cs 0.904255698216289 11.46554133819777 15.672128131950917
Cs 1.3873139911509493 16.09023938056305 13.212519399101087
Cs 14.350134505508509 13.579080672164729 15.248610150730139
Cs 15.696188853705486 1.184073859359398 14.620424350857405
Cs 11.01315480958617 17.446000657774622 14.357463526344594
