7
Energy = -3.69261915 eV
Cs 13.363942618872391 2.5525239586497985 1.1391420778810772
Cs 1.9996211815510585 3.4699800537647265 0.9309732765889408
Cs 2.891072444006159 14.749631616830092 0.8339000703318998
Cs 14.240005130185244 13.900824010487101 1.001718382296543
Cs 0.0642376778126585 0.3648046487734018 4.6433349853305925
Cs 16.06646198494849 0.4296043081019253 13.742781309987524
Cs 4.651690956518542 1.2895429033021724 13.53552983709547
