7
Energy = -3.59810444 eV
Cs 1.943092955711123 16.35329795677006 16.855959923612804
Cs 0.6499879603470617 15.302453415679306 3.463368178128519
Cs 14.16485708645888 17.88569133747233 2.262291684073661
Cs 0.784206789571204 16.729204357182088 12.08957189607356
Cs 15.027060531035577 0.3865461077197573 15.312823714643354
Cs 15.2758100967804 13.50826120123663 17.874337658879465
Cs 14.403198433643345 13.886986442106293 12.887833656843544
