7
Energy = -3.85808765 eV
Cs 16.95151374099904 -0.3982718442158603 11.350373321348618
Cs 12.558899704935065 1.4309795930878426 13.56433544695755
Cs -0.42278751001409853 -0.2512201009402753 -0.5253778892859001
Cs 11.696433178907432 15.733570524960387 0.7834368126744311
Cs 1.4477251701242855 12.553240688360537 14.05730568702843
Cs 13.358310030314236 13.355028789676863 13.475159506788406
Cs 15.327723321423013 11.907790939588534 1.0511440095922802
