7
Energy = -3.5605357 eV
Cs 14.880047150896665 10.853608134668812 12.708245808947222
Cs 1.66687710312381 11.851355549627064 15.614496784980703
Cs 13.920924564448677 15.926656061291306 12.790872040439803
Cs 14.226391852519177 13.46269106525022 17.281031088637643
Cs 1.2082674526456025 15.980354808108695 1.2402046075526965
Cs 14.454238521594853 1.4227155039021757 -0.10150664718897161
Cs 11.115384772088557 2.792360752149027 13.557900415158596
