7
Energy = -3.66975265 eV
Cs 0.15316706575558944 12.792400111195954 17.10527264630206
Cs 13.789173764893459 14.560841744698342 17.91248412466251
Cs 4.0784454820634055 16.4533664391087 15.411233956582052
Cs -0.23301884204005738 17.40840697437727 0.25004807099930304
Cs 0.21775912459589278 0.9195076282486273 13.941733038323607
Cs 9.35348135018425 16.33743333204664 15.660714373271558
Cs 13.59915058348632 0.5995268163217775 15.213731930284759
