7
Energy = -3.63607064 eV
Cs 0.37985474138905795 12.986780291804548 17.2821058751911
Cs 13.765326605118096 10.675564080433626 17.5906003729977
Cs 0.250496467941908 16.87921496130575 14.164570666813326
Cs 14.940515099404434 12.49199788971436 12.973822060922274
Cs 13.910358824898614 15.749909460788817 17.020285762736325
Cs 13.00697745260777 17.03372685764923 11.960019101833344
Cs 15.059015905329417 2.3184405646415196 15.319739956141845
