7
Energy = -3.73102921 eV
Cs 3.327988833751102 0.9030157413366625 16.897505791540926
Cs 17.1598403398471 17.67892409863761 1.660915296448523
Cs 0.5113316419590537 14.84501615835526 15.207914412302031
Cs 15.893009014783555 12.755315875941436 1.2967341229202596
Cs 16.726716885561 2.0920869943598173 15.098595235454068
Cs 15.336917186325408 16.89670503253614 11.472158016751846
Cs 13.42060039035654 15.870524245635163 16.10667407081753
