8
Energy = -4.65394078 eV
Cs 1.4624493506563505 -0.04485491984665776 11.196638971849463
Cs 15.43571529195789 13.472161672989747 0.7732871941369106
Cs 12.391973470369871 0.6753092570068071 0.2784648149413891
Cs 2.8970801919171696 15.76138032470934 16.143005347369826
Cs 16.487425034009643 2.6824682098925563 14.805578737297276
Cs 0.5552579682483101 12.12271690182103 13.378123550377616
Cs 13.720710184530772 15.48302001205082 13.001630863768604
Cs 0.12881290109652507 1.0644531877750076 2.652490744438763
