8
Energy = -4.52313086 eV
Cs 8.963484 11.64219247503549 10.934787074450611
Cs 6.284775524964508 8.963484 6.992180925549386
Cs 8.963484 6.284775524964508 10.934787074450611
Cs 11.64219247503549 8.963484 6.992180925549386
Cs 4.377611786157312 8.963484 11.744547350409544
Cs 13.549356213842687 8.963484 11.744547350409544
Cs 8.963484 13.549356213842687 6.182420649590456
Cs 8.963484 4.377611786157312 6.182420649590456
