8
Energy = -4.67065699 eV
Cs 1.4536958461078504 11.881509420431902 15.130801147402819
Cs 15.992607768684627 13.52725478357026 2.2308920650145185
Cs 0.8603695054429482 17.00738760831201 16.31938559556686
Cs 13.362941324695903 12.000875071175647 15.261491635556812
Cs 16.282954426188937 14.75677626844621 11.776617391918068
Cs 12.828141183697518 16.884386506055993 0.13145664677319321
Cs 14.954994274369401 2.2780026866803698 13.34826675669126
Cs 11.213050428003447 15.690155548722803 12.542194181318843
