8
Energy = -4.68749079 eV
Cs 17.543331071669765 16.568829369356646 1.1117001118198413
Cs 1.52924178421793 12.313758630065644 16.488369144749086
Cs 14.238535717158483 12.68012658228938 -0.8447129475419589
Cs 2.5217770027163415 17.0838170564009 14.316383282126402
Cs 16.58716933609862 14.020944331926621 12.325930123322177
Cs 15.671299467096466 1.2749455556603786 14.544570441070087
Cs 11.915029509445093 15.77012475558033 13.302836430490999
Cs 12.51289914121196 17.354622552770685 0.6629006677483692
