8
Energy = -4.42533011 eV
Cs 16.83774677904611 8.936966866933522 -1.9286175338720015
Cs 16.08304631926997 14.204597036700873 17.624736322375835
Cs 2.016327992380561 12.505250593191871 16.03797302611015
Cs 0.13991191574325187 17.36495096474529 14.846091902765284
Cs 5.3883795050455685 -2.173416653857624 15.830347289520232
Cs 14.274153958110993 0.1311102860363706 -2.4175533923729864
Cs 9.07830232284534 1.6248706346333301 16.43485671920296
Cs 12.927505239341215 5.259046316471306 -1.8911212458903084
