8
Energy = -4.10667141 eV
Cs 2.3365747966368535 16.57926663297514 0.824113163601573
Cs 16.877346664993574 12.526328671417978 1.273445825982725
Cs 0.8124637404569555 3.736921789061856 16.418589240640763
Cs 11.632912915656124 11.963816536559264 1.6058685287986934
Cs 13.694256690823629 11.676768557472577 14.64240435659711
Cs 15.712672204894824 3.034862022697146 12.411562390994629
Cs 15.56459381019855 16.587270986055653 15.99261859193515
Cs 15.042839713669386 15.369726142346622 11.162050866421502
