9
Energy = -5.16992238 eV
Cs 13.364962833145567 3.620193463528559 1.166104886893702
Cs 15.1723565757595 16.885494201721993 2.1946073804202024
Cs 17.63526594962536 17.6260029771759 13.905673858995026
Cs 15.285392827141067 13.49628821126766 16.34395207436111
Cs 0.25063721257685423 2.430096174003994 0.18818165282454893
Cs 12.609899871306562 -0.3259235616076514 15.831712336118821
Cs 1.775204279721656 15.696138062119442 0.1321733332351268
Cs 15.29365740645904 4.008963081890436 14.413857006221727
Cs 1.660527531465763 12.583727593566817 14.002282061370629
