9
Energy = -5.07581032 eV
Cs 1.8959860570759643 15.225730475556842 10.937611302411362
Cs 16.08477887243577 11.706544369439756 12.312840103247359
Cs 1.3186682418942703 1.411816603662388 14.20976074618773
Cs 0.43096737588299106 14.201312240678416 16.517454992793326
Cs 14.195819117774773 16.658430853734025 13.095221107710918
Cs 15.465405953292612 1.0785088147661006 0.2886020480022267
Cs 12.944148091045665 12.361255666825555 16.125366421847648
Cs 14.651055683020886 14.331075689978425 2.960711588486948
Cs 10.718212866285278 16.78120964588465 17.046495207993686
