9
Energy = -5.25590224 eV
Cs 15.545118097754058 14.116216420211396 0.1000921170553285
Cs 0.04461284708181612 0.3894760245154712 16.932372413491386
Cs 1.1475947769228894 14.099532983831352 15.40975340925269
Cs 13.9808200527569 0.4739248419051978 1.0231214237800783
Cs 14.917352945620246 3.426094256977854 15.062894425309084
Cs 17.28584893695234 9.234460650255118 17.00351894250755
Cs 12.336027711485926 16.651365477804074 15.219590911905009
Cs 14.860596661413883 12.451494969060274 13.496646248962046
Cs 16.523842719141655 17.30634699384096 12.400555242525469
