9
Energy = -5.37523137 eV
Cs 17.32129746288436 16.35554845029228 8.386220072202716
Cs 0.26969471166751957 0.5111192308990931 13.455868541980704
Cs 17.455693985039062 13.818156627122946 14.999903226717784
Cs 13.756053013167167 16.399374836451653 12.022290058615031
Cs 14.465163194962516 -0.11625638591571726 17.175424490540955
Cs 1.4047461676616315 17.086417202503355 0.3787344264462008
Cs 12.517736563782279 13.199487347539824 16.174819818292942
Cs 15.988620216940058 0.7462065760119801 4.179347262896621
Cs 15.640835911671916 13.980793199190794 2.4487259822124914
