9
Energy = -5.32246854 eV
Cs 1.5756837077413537 11.75317486603765 16.195964260819714
Cs -0.8942151801260937 15.154354239410644 13.275582583210607
Cs 0.018717576782175328 16.569318176949118 0.8627390298624861
Cs 15.306322860204027 9.06590142034052 13.422311611930102
Cs 16.138348593297962 3.7851257908943303 14.898477586169363
Cs 11.579152671689542 13.323498649050633 13.129833696129262
Cs 13.945158877511444 12.328729480858305 0.2596073211148028
Cs 12.934344424601203 1.1903018973476487 11.684577148753757
Cs 12.505125711962027 -0.0634777595541614 -0.6222077712292143
