9
Energy = -5.29095201 eV
Cs 14.19696271085218 0.025103160834900138 12.916242952690824
Cs 0.2395743789829628 14.770903120677989 13.832833948066252
Cs 13.640923232920718 13.046899984685307 14.182950993219277
Cs 17.558556764810273 9.779930652783907 15.777139839376915
Cs 15.221208293431179 5.288223577959185 14.332126104148623
Cs 14.04069760306254 12.072038332273326 0.763609793838591
Cs 13.447013644113792 17.06894796525336 17.72548187550684
Cs 18.127763520872136 1.1918831189522427 16.161891449303393
Cs -0.11352959311115204 15.014980864562133 0.3853785543330266
