9
Energy = -5.05558497 eV
Cs 15.666754745642107 3.1657914391512163 18.70386594560685
Cs 15.792932287175999 1.2958554308206411 13.776152358394944
Cs 17.165403808647284 0.01784319341117353 8.713538078178791
Cs 17.29430887522882 1.015880596986722 2.9904875912618913
Cs 17.039059637697118 18.576890861021525 18.181527857291524
Cs 16.689527615094903 16.561526588212704 12.370584233402074
Cs 19.296591625070796 17.12703762475294 5.3383642166666645
Cs 19.437912268368372 14.916102246969055 0.7782376923885691
Cs 16.810298200573325 13.66214589204762 16.546646838337637
