9
Energy = -5.06372358 eV
Cs -0.23706234499536014 12.315130629602903 3.1034911839027033
Cs 16.49375386411749 12.782827340250353 14.461334329783888
Cs 2.000361809842893 15.89265869614625 0.04150713347646374
Cs 12.415643448812721 12.095865325899354 -0.3640587290837756
Cs 0.7363123675206894 16.908906903251896 12.26503623278497
Cs 14.825233909538953 16.47153730550469 1.8182370693117778
Cs 16.660477249441502 3.160269973371143 15.851548251722345
Cs 13.57020521979603 15.255003553304848 10.33298966947119
Cs 12.366503411679851 0.05930281936031412 14.87971155806839
