9
Energy = -5.17197707 eV
Cs 8.300824705812776 6.588729801924267 5.228032520025125
Cs 12.87112403185577 8.421313084935267 3.754720410574719
Cs 11.729517183320372 8.147647108513306 8.802735752109891
Cs 5.219406485686953 9.199533033924345 13.164987720183383
Cs 9.523444014008518 11.754239392218272 5.792703063284371
Cs 5.23778193897779 9.767564997496885 7.994553730526027
Cs 8.897946170853178 12.04203914764023 10.86011463843044
Cs 10.28502345054279 7.944674508903151 13.689018417983636
Cs 7.369460750087343 5.56879105887123 10.147662478028018
