9
Energy = -5.1629464 eV
Cs 6.955657421465546 12.820547066701234 9.30553517900498
Cs 5.192086989918393 7.613710143831641 10.228520163461756
Cs 6.005963656252473 9.484871066959307 5.398546075734127
Cs 9.706354356040366 6.535110010682651 7.450645816870121
Cs 9.796086096445292 4.513100363357815 12.116502295607697
Cs 12.06706077055974 13.44071723947667 10.651687107101559
Cs 9.290778941334159 9.59615400815095 12.61187112911533
Cs 10.999573300119621 11.305926020771574 6.095227990111345
Cs 13.8137350133975 8.517158989001743 9.968760242992966
