43
Energy = -92.41384152 eV
Ag 15.081673353099823 13.964029576665414 15.969652058290968
Ag 14.569666902159645 11.550638924933862 14.500830335896003
Ag 13.215883378789412 15.95776311907393 15.018725380752288
Ag 14.435425101101075 14.1242134951192 13.277827758091753
Ag 12.497246455426945 13.277324253698925 15.380811612433057
Ag 15.39626832550836 12.059707541211726 11.643879065019037
Ag 15.88334971544643 9.597434791616317 12.940315558716746
Ag 14.955393346479276 9.562240460383343 10.144583257044333
Ag 11.594060758096653 10.702357113087118 14.642240250432032
Ag 13.692658057412704 8.837289173203962 14.648042946638386
Ag 16.888682558376804 7.810788820538946 11.095416198468103
Ag 9.818897293798958 12.692113724523724 15.35557335612476
Ag 10.565695237395982 15.211091456139183 14.492941561110658
Ag 14.254477270983395 7.506449875487547 12.022671734509121
Ag 12.289732481305613 15.727777025121517 12.322019581789013
Ag 11.072494485319593 8.22567852180454 15.68928649513686
Ag 13.184342490865033 10.417216796426281 12.2883745580003
Ag 13.767098472938615 14.055187942341506 10.606752138847297
Ag 7.219432575845853 12.237925294457161 16.053785305015527
Ag 14.825398843479618 12.043456440654097 8.827840677011498
Ag 11.578049584665525 12.94280686609029 12.64295059841843
Ag 12.180082256965225 11.693181667121939 9.90941798512917
Ag 11.636670767621572 7.958906353125019 12.922275550480611
Ag 11.053126921171687 14.39620662765622 10.041658236952266
Ag 10.39291977269437 10.560262177175549 11.812213107821238
Ag 9.077829649817867 8.726421872586306 13.621127062969572
Ag 13.175462118477903 9.891824846322171 7.911658741119626
Ag 9.422592572684954 15.533626319385856 12.008970634530442
Ag 12.922154203237367 13.926963021339514 7.953847408895762
Ag 12.324135285818565 8.538758347710703 10.243181044475444
Ag 9.063824725583089 10.123245219497367 16.068039592273525
Ag 13.967749744179008 11.993642245843427 6.135905557380003
Ag 10.289015049342913 9.760154578094237 8.828139527425188
Ag 7.906973792402675 14.136127016582615 13.986925340798916
Ag 8.409839711215488 14.890555760502316 9.391976448875715
Ag 9.595082965520886 8.013397654420874 10.943923796989928
Ag 7.895956775600631 11.236653534462816 13.537628062431699
Ag 7.934279250418908 10.345388068907862 10.746426305882173
Ag 8.594146520000645 12.967203974620345 11.513157281904318
Ag 10.232307125781535 14.42502416148964 7.277374305497562
Ag 11.3027028908506 11.775756377240997 6.987448550360926
Ag 12.161210089319884 13.973458353062856 5.311879209990442
Ag 9.343701057948383 12.301796944348668 8.96024089187857
