18
Energy = -34.08401309 eV
Ag 12.171633 10.428674252309909 13.380287746225708
Ag 14.379186230568317 12.171633 13.394931406109492
Ag 13.628168188533634 10.814499605944528 15.776326106933736
Ag 13.628168188533634 13.528766394055475 15.776326106933736
Ag 12.171633 10.493879224001246 8.700289793370645
Ag 12.171633 13.91459174769009 13.380287746225708
Ag 9.964079769431688 12.171633 13.394931406109492
Ag 10.715097811466366 13.528766394055475 15.776326106933736
Ag 12.171633 13.849386775998756 8.700289793370645
Ag 14.358553322819033 12.171633 8.409992334335481
Ag 9.984712677180969 12.171633 8.409992334335481
Ag 10.715097811466366 10.814499605944528 15.776326106933736
Ag 12.171633 12.171633 17.717936144665078
Ag 12.171633 12.171633 6.54704378362184
Ag 10.682748680595587 10.814905988894257 10.98702677097379
Ag 13.660517319404414 10.814905988894257 10.98702677097379
Ag 13.660517319404414 13.528360011105741 10.98702677097379
Ag 10.682748680595587 13.528360011105741 10.98702677097379
