31
Energy = -64.89828807 eV
Ag 13.878648500908538 10.352278849293858 14.053312346261952
Ag 12.858239400921363 12.80484593477764 14.725455422501888
Ag 11.520448705384526 8.928896748881822 14.677310259343534
Ag 10.394040890926073 11.486904317936993 14.348708021482565
Ag 14.574080340166274 9.853020727915613 11.278413287241982
Ag 10.585411312378453 14.327193064151832 14.487642497909286
Ag 9.083691747219348 10.963810632656235 11.724150922033692
Ag 11.819004592638125 10.211548015026153 12.077669593753027
Ag 13.785171996054206 12.403238869702363 12.097333188824733
Ag 8.854025088375323 9.170621768778783 13.837479627690568
Ag 12.821557048792181 14.921139290810753 12.813782351228252
Ag 10.610406104106186 7.609224232606672 12.33486484583061
Ag 13.362698476442779 7.845431095376776 12.814198759562231
Ag 10.878821132860715 13.086857881625015 11.88203322493971
Ag 8.392573932106966 13.201242829609273 13.200774663637757
Ag 10.159716748322182 6.636615322892265 9.80233748310097
Ag 12.66109763978105 8.183915342263056 9.958367827833532
Ag 8.183699481772946 8.355702088713826 11.160322663721267
Ag 12.817719053394335 11.259704075127056 9.644111411837509
Ag 7.9332347956204226 13.178567670330859 10.43225788279359
Ag 12.73816218258604 14.09960940226709 10.096034021091548
Ag 10.311424780543748 9.562085812666595 9.606597415357509
Ag 8.17874395156942 8.01578092787945 8.35825585756075
Ag 10.278759282907044 12.394434856563759 9.052739838024534
Ag 7.585656889274679 10.579426034862683 9.38043142338839
Ag 10.996492402361742 7.928976322017099 7.47518759314181
Ag 11.81808096494939 10.531465992238795 7.152688667703136
Ag 12.524158154575328 13.192340554522577 7.514384127501784
Ag 7.833916127897946 12.731960279333245 7.634312737031497
Ag 9.077216813258811 10.224156088514713 6.962229484295687
Ag 10.175015698564078 12.606730736936573 6.0951793112521395
