36
Energy = -76.50736819 eV
Ag 8.910330228287705 6.34563440481769 12.846948969292857
Ag 8.08600781809247 8.86650801419718 11.88235759181289
Ag 8.480723753436934 8.347539149150572 14.696859119555464
Ag 10.415866965040742 7.533677193718557 10.814276008986527
Ag 11.05964837632817 7.962520800470855 13.527613762027618
Ag 9.45191309704087 9.758996329370945 9.462896126752797
Ag 8.043454498583012 11.562132546604925 11.065302001120482
Ag 8.063138365581604 10.947562304805073 13.866503120054787
Ag 11.965267378139623 8.534393578796434 8.72021279432879
Ag 10.435765926086278 10.454891105089088 12.256483883024787
Ag 10.584551601418886 10.155495702692244 15.23916390545107
Ag 12.821380614927326 8.956534452020897 11.421348676511581
Ag 10.978703814753837 10.648207977180224 7.200120510247608
Ag 13.4773854426253 9.535129397673746 6.55921766915744
Ag 9.466270711256348 12.466109712939854 8.693081044259511
Ag 7.932612670120182 13.628753004360272 12.966924207739785
Ag 13.196328349367077 9.668595111989491 14.098635560565144
Ag 8.0034293621831 14.253102774602995 10.223153072891556
Ag 14.344483916133306 10.058292932125305 9.232430576362658
Ag 11.865605589813583 11.315443462324449 9.94893576105288
Ag 9.638502932881721 15.205382126694039 8.20307921367992
Ag 15.23687137751306 11.434354358671108 14.631975169050058
Ag 13.400848664635573 12.13680773459921 7.534673973677853
Ag 12.654249642821663 12.067205716439972 15.601704049632485
Ag 10.24032190997721 12.704258582342534 14.217277829911202
Ag 11.017158618354806 13.377450064016887 6.537398832849924
Ag 14.963248672246268 10.693813263142129 11.923845664991962
Ag 12.659017100917447 12.156299883688812 12.616837472057519
Ag 10.435331496130878 13.447608003832476 11.429213945792602
Ag 14.358127098340647 12.804507774545163 10.122476891697344
Ag 12.028234704238724 14.076481031129257 9.050117661039545
Ag 14.780120933740646 13.999134466432189 15.457679390738871
Ag 12.27416103261139 14.546381829910016 14.215228486254631
Ag 15.285538759891063 13.457434599897766 12.689236592955368
Ag 12.961954756646758 14.885133106654179 11.503925077566501
Ag 14.502158950391866 15.995530187643608 13.535160134894788
