38
Energy = -81.81357487 eV
Ag 12.923325270961259 7.721558520595121 16.139669469700618
Ag 11.96113299364862 10.451408457670624 16.21959576232803
Ag 11.547491116993907 13.140857713720303 15.353911913489842
Ag 9.822703251469788 11.045778770193866 14.439730669552445
Ag 10.958551362519469 15.774369697935253 14.474575760526662
Ag 11.143967811830333 8.514023413858938 14.228436635351303
Ag 9.420350006912475 13.706161451557094 13.45236109765181
Ag 13.712127613536465 15.161946044095648 14.620793181076897
Ag 7.781960432414221 11.571141192138281 12.569114660446148
Ag 14.338996680410595 12.522105246115222 15.250872421225372
Ag 14.648641998872234 9.803048850981707 15.650744057242163
Ag 9.239547376127408 9.120884945694526 12.349251206031202
Ag 13.90280162671266 8.255963860182927 13.449190245086564
Ag 12.63724721244557 11.020178768505877 13.577925178791451
Ag 12.173851576032526 13.835938474320336 12.631505726693362
Ag 12.842513697958887 17.70786044442948 13.710436487146906
Ag 5.816754894913127 12.091528974356859 10.592530719689883
Ag 7.378309708587528 14.181119835523617 11.58042372515327
Ag 11.310184134488912 16.441537304177384 11.773158526557529
Ag 15.13148069374406 13.502791909043363 12.721186168938843
Ag 15.452394339689848 10.746516928563208 13.165323625324248
Ag 14.105291406930574 16.01082897713283 11.889314970702628
Ag 10.599751853546168 11.628430215320888 11.698551766730255
Ag 9.965851694683765 14.356858341788987 10.615699472285264
Ag 11.968480714251564 8.972303214448273 11.514772948459045
Ag 8.4674067132509 12.187246440325975 9.753323780924124
Ag 13.40078582627727 11.863752495434772 11.006780146263097
Ag 12.622632798051253 14.664460181225007 9.83209312233277
Ag 7.269906383778537 9.72583236463667 10.481892374653338
Ag 14.74560325478137 9.203033215857443 10.942687690107832
Ag 15.393825770114255 14.380015903735055 10.032834826909388
Ag 16.247135505870727 11.7755831595727 10.722232437727195
Ag 10.000787898159027 9.77704556937528 9.611801704991107
Ag 11.181818856288762 12.373071761664496 8.98325460884636
Ag 12.7576448669193 9.980025362138347 8.980255052101235
Ag 13.890666165619827 12.628781309228104 8.298608736577991
Ag 15.497574985953348 10.27610433545236 8.480386755124218
Ag 16.662230601626508 12.801635445375256 8.126501463632003
