43
Energy = -92.57147289 eV
Ag 17.722235107201517 14.39519966746518 9.884051264289942
Ag 15.744098420383372 15.232586429323415 11.717931387758776
Ag 15.103418328364457 13.641455895652467 13.963977465010887
Ag 12.594067676677852 14.171491024786345 15.752380969269737
Ag 17.192839114142025 12.866711113112114 12.142176608292507
Ag 15.089413930698935 14.643997671577592 8.988203489289713
Ag 13.108920267835574 15.394776756349986 13.218861772114762
Ag 14.3144721390416 11.876327993063091 16.03809923488798
Ag 13.507860645104786 16.429504895371362 10.565500034351412
Ag 16.524157582960243 11.316466724405753 14.370226320252293
Ag 10.460633372546754 14.618785505535019 13.900067412920668
Ag 16.15721108628973 12.105299927867918 9.571967346383213
Ag 10.290723930706356 12.388313699960056 15.634156052710727
Ag 10.935457160636759 15.932173054034976 11.50374996261283
Ag 13.5450221194858 13.472974280062273 11.142699769477607
Ag 15.780780552787366 10.472018319859737 11.81151759820643
Ag 12.115800254618572 12.17385091485205 17.735545743762763
Ag 12.532249988230497 12.450244009526203 13.604625356278502
Ag 14.130062714020578 9.974119398483833 13.941731526636579
Ag 11.20606602568944 17.17014633957962 9.042349140560367
Ag 12.256516781438355 14.624684589669378 8.818797676378919
Ag 14.626624959462216 9.746545864304961 9.399751717913174
Ag 9.531875029429607 14.893937321976988 9.308233385676171
Ag 12.084008109540934 10.1669658157347 15.796068102592468
Ag 10.661775396054065 12.984945406754317 11.51128248238787
Ag 13.484877996332672 12.152864556957413 8.605722625105498
Ag 8.335199199163782 14.903886178139588 11.884636772945294
Ag 14.126414881897292 8.195893053706785 11.777888761493761
Ag 8.388239108529216 12.669114512988358 13.526103311685906
Ag 10.614353089842929 12.334137385897009 8.700080606709472
Ag 11.9202910144757 8.264742128099037 13.610120264723479
Ag 12.695878923427527 10.70937493107141 11.36583239083463
Ag 11.9011607635839 9.825349043453993 8.694340925835547
Ag 10.367874235190003 10.676333684518596 13.361705869899852
Ag 8.148578671341863 12.641587871033792 10.163138134880995
Ag 12.59939368444029 5.951283082573441 12.158189625382937
Ag 9.792438528548235 8.708910511711396 15.357371212667507
Ag 6.094899327175737 13.146128882545803 12.000788415891355
Ag 9.792671760221648 10.326799492004165 10.516741553423786
Ag 11.411096327977532 8.083355429691998 10.865305212333022
Ag 7.314823348008694 10.62220312581529 11.878174069348944
Ag 9.063665136518605 8.41619045601352 12.566547654876144
Ag 7.63788020669961 10.146763780293814 14.524773322038548
