55
Energy = -119.50780298 eV
Ag 17.349670690462084 16.495965317372935 8.433785964139126
Ag 14.497714730962645 17.137091609684873 8.066482739737054
Ag 15.437909170834084 15.786398664416204 10.215727268908866
Ag 17.05016586202508 11.39320694770617 11.019782238149624
Ag 16.115953365121126 18.516224754589217 10.093532935578681
Ag 13.345129294356727 17.695243615080457 10.651560426311008
Ag 17.497789922568266 13.971160197157227 9.967017800976178
Ag 12.389942743987948 12.745551100122851 12.071530195424042
Ag 12.847968400056242 15.08449921280676 9.416543923765568
Ag 14.842052012308931 13.09934072694794 10.801109091434544
Ag 10.746525207732848 14.799902124535762 11.27565629007058
Ag 17.950944678213315 16.625122996083643 11.240168212677906
Ag 15.246871552666626 17.75878150063556 12.717987440476682
Ag 14.496820360327344 10.782117411687308 12.338444725296076
Ag 17.24584476825747 12.041647535979912 13.696390186403006
Ag 12.423106732612519 17.630661657860315 13.493211193306779
Ag 16.460172004888154 14.603371915940999 12.581648075633336
Ag 11.740968475813425 10.488724627033667 13.470302941341604
Ag 13.498943911254019 15.320525126321048 12.145885708874628
Ag 11.395772860914752 15.04798557710306 13.93513692446903
Ag 18.5049905691926 9.743946394591765 12.766848237586272
Ag 9.988048345130396 12.749571502500038 13.522773433876221
Ag 13.627673778697694 8.342905182920406 13.293059379736944
Ag 14.498843910778415 13.067469083909263 14.05464246188622
Ag 18.737391703120792 15.729788510432494 16.729524451315836
Ag 16.835681677076053 14.369210785592292 15.30748388813663
Ag 17.64421548250592 19.08068378729219 12.515677002243834
Ag 9.825943143235094 14.281496979851688 16.068240240010205
Ag 17.689384411433842 16.71833711204139 14.143150322709225
Ag 16.144139820066783 9.172060905330644 14.097000426090526
Ag 13.88013650247127 10.370432284208894 15.21193925840479
Ag 14.312816858729505 14.10456577412115 16.82554637128227
Ag 12.324551695016883 15.893372036692156 16.37365950080616
Ag 14.525215608148986 15.882730630992016 14.644179225773057
Ag 10.128596482980047 17.206044885440452 15.504729996967693
Ag 18.231429085918045 10.177045571574784 15.598340706146132
Ag 12.049095365391782 12.54867093364969 15.51995914701655
Ag 16.44662111104399 18.9858363687469 15.074566888491418
Ag 18.757424431172627 12.79397824189289 16.511957637368788
Ag 11.478379820836302 19.63801931038813 15.243838484681161
Ag 9.02790036703832 13.561233236754942 18.59058188811782
Ag 10.209031059257098 16.05387716096317 18.288803143141827
Ag 13.018922875558289 16.079732230073677 19.064804567594372
Ag 16.06267400186824 11.879466643770364 16.254559479605987
Ag 13.879729877548517 18.44400716257296 15.816121792192446
Ag 15.81637689949448 9.29055843246829 17.03984759744366
Ag 13.656122656801397 11.503960348669864 17.76725798422093
Ag 11.788937414917989 13.620136653680271 18.24044882786908
Ag 16.878856205118954 14.115117276548473 18.177310585861743
Ag 16.046442501447967 16.71405451388722 16.873967807386535
Ag 11.761903545786149 18.319463539919756 17.734602688277942
Ag 14.393773296585206 13.624245172158515 19.568119192979967
Ag 16.18997371701384 11.456416108239075 18.979721512748313
Ag 15.720347986835373 16.180171199667683 19.649614192146913
Ag 14.515233190378904 18.45494356335193 18.492289540870065
