27
Energy = -55.56516688 eV
Ag 12.32283300804925 10.035518065477795 14.017569686717074
Ag 10.24211677498875 8.617426279821013 12.86507841723532
Ag 10.757179751302338 6.784563562089039 10.757251825464463
Ag 12.780975556599994 8.517805712885787 11.672893616607558
Ag 8.136862520422953 7.140717825850264 11.772589598129636
Ag 12.318018284238994 12.775894070444286 13.495704966957218
Ag 15.272207336361703 8.731887930184278 10.596344878776183
Ag 14.252903369601338 10.980413024241296 12.090428539144813
Ag 9.846649625872296 11.436458513923286 13.764138921455805
Ag 7.730498562371751 9.869234851949628 12.731977187141245
Ag 13.403400384482824 6.919060758556837 9.532905234438278
Ag 11.411163588627463 8.652019946443612 8.775308334644127
Ag 11.343679352779779 10.979635593379937 11.399982056283777
Ag 9.166668308407928 9.232575450802502 10.321563680329355
Ag 14.750601479065265 13.790272835075701 12.761425207736417
Ag 13.372134616081922 10.523050216527393 9.384633431765451
Ag 9.916959376335011 14.095384212705259 12.930235100344037
Ag 7.418911902768155 12.769659078855092 13.259357230685978
Ag 12.049496997295709 10.50130507955656 6.817492844065172
Ag 10.288202221579379 11.300687593267993 8.792616398517373
Ag 12.386539077890031 15.250684982904808 12.093503599065352
Ag 8.667550930588384 11.924572899012787 10.968510030068792
Ag 13.216747821492483 13.078204224976657 10.573880646451725
Ag 7.890937754542847 14.584025653600467 11.053402095917244
Ag 10.522406666216003 13.887906509055611 10.045082614235252
Ag 10.011410380979292 16.36828546628881 11.282405469031195
Ag 12.273360596303293 13.003165907368142 7.994134634035786
