10
Energy = -7.28783772 eV
Ca 19.643499882065196 15.685092049417712 17.57505273484771
Ca 15.938467536787977 14.775783850289365 18.27204408204084
Ca 17.732944661767025 13.582518318854582 15.286473604043659
Ca 20.589707120711203 18.537697876068307 15.454810592217552
Ca 4.1776298479252985 16.180194209370146 16.773502059832836
Ca 21.273847347345736 14.913927571993883 14.36945595678813
Ca 16.919379630310438 17.8979546540771 16.583478178214126
Ca 18.187275170454285 16.66624662674186 13.393039680284051
Ca 14.707629072055326 15.606655498100684 14.733163110628626
Ca 2.222737630720402 12.579935695486547 16.98980700529802
