10
Energy = -9.86723669 eV
Ca 14.518264964702023 11.533568973874788 14.055989854716533
Ca 11.279884711597907 9.562800632758629 14.439494274170663
Ca 11.464345434088361 12.222570260442811 12.057101814571057
Ca 14.6099787262123 12.710958607584264 10.428936609768003
Ca 8.5193328231969 12.569949949104577 9.880902173194018
Ca 8.261530610926515 11.734391451256972 13.588844042914166
Ca 11.556992956767159 14.854713220708975 9.62434937493753
Ca 9.664038861036586 9.177892981707503 11.003339092491725
Ca 11.705428893256117 11.109777891535352 8.546116838131553
Ca 13.42340573712838 9.180565632998219 11.2975258987006
