11
Energy = -11.0153525 eV
Ca 6.37209229542424 6.632722964170243 11.540820620664432
Ca 9.063882380948355 9.05225685735564 10.000745974022447
Ca 12.51507330901389 8.12161423718117 9.36641086175618
Ca 9.551629361410567 5.463617386624558 9.747734189699674
Ca 11.030559644374602 10.82585205633511 7.390394206661665
Ca 8.512868469551982 12.58846200462334 9.384055599853069
Ca 11.929798596797252 11.618412361505998 10.827487467527181
Ca 10.060422051993918 7.4344867725035995 6.459854198295584
Ca 5.549935851673849 9.92935793571391 9.765988103016507
Ca 6.756763809336095 6.992150022709305 7.93959741625611
Ca 7.5509287294756415 10.235021547419365 6.470866216104924
