16
Energy = -17.9485782 eV
Ca 11.053308789586136 15.095130422087493 17.658305498471982
Ca 14.6855411839905 14.308657155049485 18.01626798279869
Ca 10.049887525675581 14.213284380931391 14.043217498942655
Ca 11.780930574922177 16.18852372153569 11.317925422089717
Ca 13.21645223049835 10.384624662742238 9.217070883573044
Ca 12.513813962628733 12.112558479094103 15.942536556290802
Ca 13.674110875618272 14.070846012843583 8.78967275095991
Ca 10.306031024126835 12.434219190777508 10.228400085910016
Ca 13.069508487240466 13.017265922834008 12.272539153506752
Ca 10.739316467788063 8.254823180022427 10.666051629566066
Ca 16.1838421283442 12.00777762489793 10.804140480613945
Ca 10.256251714615129 10.49878758175625 13.434315265947404
Ca 13.781835356331824 9.61090964946892 12.854968863665675
Ca 13.378525832960891 15.772964680671457 14.857780773134465
Ca 15.589942183277753 15.656805736827378 11.750506107612996
Ca 15.859398414763612 12.896592150728324 14.577242453172595
