29
Energy = -36.79422982 eV
Ca 17.007905420749438 14.995644918453303 10.77559024150526
Ca 15.042933751361693 14.252052461051386 7.667174645839969
Ca 14.15507758582013 17.33264307043963 10.069027934870807
Ca 18.52252986456175 15.25701337448445 14.335281212072701
Ca 15.611839050625068 11.130661960314749 10.252641926318363
Ca 17.277805981904667 18.351117943503006 12.435584836341816
Ca 17.07263709261182 18.01891759462318 16.267077130367245
Ca 15.924053910074873 12.881682164355649 13.498258258018232
Ca 18.934707649442956 15.075757036829824 18.110397214051385
Ca 13.347045684907139 13.827869533954368 10.8574906276998
Ca 17.663712849341692 11.724710526491506 16.50991321649633
Ca 12.392744620532197 11.617299810458649 8.098379760678556
Ca 11.443730941845356 15.392676463811709 8.202757760709956
Ca 14.779286930971896 9.638426637215147 14.223285888634248
Ca 9.549145374218195 12.908072893577804 10.202189333206107
Ca 16.322129372521406 13.018207721244071 19.946994187442186
Ca 15.954976857096947 16.772244931312144 19.77983657881596
Ca 12.52922823359273 13.005537289644211 14.617080270963774
Ca 11.979368984183617 10.59020429611833 11.82274180608041
Ca 14.366934533944553 16.40812613764706 13.718846907757646
Ca 15.52821321388982 14.680182311506403 16.783048385119297
Ca 13.931526435017716 11.265782243045866 17.5328471701968
Ca 13.406082263547436 17.850044083460208 17.176810426682444
Ca 10.804553800484943 15.87333002266516 12.184795261253337
Ca 11.163441319812575 9.583093132575682 15.384186698750478
Ca 12.722106693831664 14.644359855096667 19.093913887220168
Ca 9.06022941020187 12.62324230324852 13.911062502482418
Ca 10.154719246555024 12.320750430802578 17.610015033193548
Ca 10.6140570153322 15.714613032762218 16.03345568137953
