25
Energy = -30.55019937 eV
Ca 16.88198603051457 15.132502212237805 18.27605792545617
Ca 13.57709898504099 13.474525125416955 17.5472478531255
Ca 17.94871019814826 17.13428117008567 15.301603024874682
Ca 14.262617456111116 16.885916526292846 16.13368026230658
Ca 10.726022792957435 15.906027230501051 16.821252084755415
Ca 10.299442593673243 12.060371915112293 16.069815821320127
Ca 13.886596313887402 10.881864991610275 14.672126540365868
Ca 16.242559104343226 13.848459057363575 14.811851049659337
Ca 10.907173920560831 8.704535612734752 14.440865190268473
Ca 12.478209880632587 14.211054425299036 13.938946644336403
Ca 15.285491839607854 16.895499255998445 12.625730876732204
Ca 8.637965438818112 14.78361752912609 14.030388073892674
Ca 17.008046171345725 10.509346815160589 12.786094233653518
Ca 11.411536143657363 17.414690887571435 13.04706711021048
Ca 14.972030994243955 13.374471035520001 11.267265078119747
Ca 13.948019004368533 7.985157492156614 12.002128736186295
Ca 13.097258316616589 16.252050692895125 9.666335523223884
Ca 12.10544894588747 10.918113661038996 11.343079444429423
Ca 8.686597643848732 11.211711301217901 12.702972843312732
Ca 15.513899949377096 10.265553109023426 9.394990511749931
Ca 9.942934849984773 7.911708029675035 10.99679714427189
Ca 10.349763074942468 14.191968150361562 10.788685996528955
Ca 12.763518623627357 12.717892007498751 8.17158559633282
Ca 12.380310564984482 8.758676260488397 8.306585264379603
Ca 9.360181500091796 11.026431750497366 8.896186732364754
