23
Energy = -27.67068291 eV
Ca 10.609973445692063 14.181032415024745 7.15803885204745
Ca 14.305431283591421 12.983743071113999 8.208321786482495
Ca 11.132252340367348 11.239986915674717 9.159654654255666
Ca 11.810532500685934 10.639118820517076 16.62520175069157
Ca 9.968321017668126 14.175931094952887 11.106014411247786
Ca 17.066608791569386 12.147402620246583 11.508354413704874
Ca 12.533543817453419 16.192696280551825 9.388071212019177
Ca 16.029874203620853 15.747978952611794 10.456711946539064
Ca 11.093277384679347 10.658392768455288 12.924769355981173
Ca 10.7017889302527 13.805802531425753 14.9049926028815
Ca 11.718610488127593 17.018521575224717 16.98505433835395
Ca 13.065318952115346 16.528325744161734 13.281569685824936
Ca 11.54690892671981 13.633992623617734 18.754895790401502
Ca 14.178889643843213 9.867032757831822 10.733213590739249
Ca 13.46306051644743 13.302301588154547 11.706321416416722
Ca 14.693931508226882 11.156125881262263 14.38982273599332
Ca 13.996534273229077 14.353896549202576 16.23062387760742
Ca 14.476486316563106 15.867007846568569 19.465190593638663
Ca 15.416604695475876 17.714919777225404 16.177760569884683
Ca 16.642811736798933 14.853538406501347 13.9122470899073
Ca 18.160431660608687 11.802347599265811 15.35716154147366
Ca 15.183844876811023 11.884384994297987 18.305838622031626
Ca 17.522739094778682 14.8158617644468 17.529354868787387
