20
Energy = -23.73620088 eV
Ca 15.936425342862808 8.519785101288653 14.71207510556158
Ca 16.174467086997986 11.653141215641407 9.269486670786206
Ca 13.740367431362888 13.25280692445766 11.482547751346015
Ca 14.872501061907977 11.755793321344738 16.23277389365639
Ca 10.722712391576051 14.607677463630006 10.228726719294572
Ca 12.446761007320852 11.407796444666838 8.604502910321912
Ca 16.89329537287634 15.00680945494413 10.94997762141647
Ca 14.2156513334189 14.693281929139072 8.157244788159625
Ca 10.425291792996989 10.999476093598885 11.862490343265286
Ca 13.706871347738593 16.964708650414302 11.105797133985167
Ca 12.22605628583817 9.373094601736367 14.974158643971663
Ca 8.417299703509201 13.99474541219503 13.14097411739215
Ca 11.51936305234755 11.767479974390955 17.981359365532892
Ca 16.7563586044129 11.843561114454449 13.102546014091622
Ca 11.17054606332495 16.450416697377083 13.70516727755015
Ca 8.818332543307067 11.105354755040453 15.46805422372725
Ca 14.873870275630216 15.171953590591126 14.39819907405698
Ca 9.484749282814503 14.725830744706544 16.72864237905581
Ca 14.017733744126847 9.553819627974253 11.682254861911982
Ca 11.773400655241838 13.005546224988498 14.548939152629439
