24
Energy = -28.96219927 eV
Ca 11.424221159124224 13.289491061152212 16.354258456183455
Ca 10.071090755628322 10.217777652040132 14.685897199435958
Ca 10.710666517658465 10.626452084405503 10.901407519635129
Ca 16.73731755900722 16.791997169105972 16.53634849486654
Ca 9.604768870636557 16.384730707806973 15.272926408547486
Ca 15.017299514746774 13.490760010804523 16.996363093324977
Ca 12.40160568110668 8.080507624808408 12.881806673962023
Ca 15.053574719721944 19.343380001769408 14.55567747889672
Ca 13.58742622608288 15.645826725702838 13.902982529238098
Ca 10.25065821666392 16.79389929157464 11.489598100527607
Ca 13.489249325748506 9.705313138025094 16.392863703144595
Ca 14.513515265154238 10.364241086076161 10.331418039844346
Ca 12.428425174496665 13.928400508502063 10.44316827069722
Ca 17.844396380674027 11.04456224597097 12.149681669305567
Ca 13.965474696015955 17.718943320694844 11.038939710365321
Ca 9.810004305788917 13.485581115977505 13.025892954270722
Ca 16.024245725350227 14.139609642598227 11.065881394625249
Ca 11.576522359290884 19.139684760390903 13.938554500123322
Ca 15.880835857113672 8.284733275345955 13.488077784860467
Ca 17.620019559527897 13.937983653119957 14.40055491555275
Ca 13.87445249351208 11.778101295973517 13.529793195831017
Ca 12.932738800385218 17.0598166717245 17.09884899109231
Ca 17.203886982454286 10.630383519166642 15.938608294660279
Ca 17.38289482625823 17.206537390004943 12.747159011083662
