5
Energy = -3.60826046 eV
Ca 9.105036680067366 5.501243815081305 7.316175390984606
Ca 10.099728649208828 9.081963018546805 7.542437015950986
Ca 6.5788489601138025 8.225911611589794 7.096612858311178
Ca 8.223068588427083 7.587227900149256 10.283532074305871
Ca 7.4973321221829154 11.107668300775224 9.26525766044737
