8
Energy = -6.79181588 eV
Ca 13.586650561105378 10.291756336696167 10.52608724695797
Ca 15.386999893065637 13.367797849299341 9.814544652489516
Ca 8.328104941424346 9.535696495324647 13.836161133575768
Ca 12.419471171392416 13.53565847335937 11.972824253923369
Ca 9.91690584306033 11.116965631038218 10.92635419628815
Ca 11.844089236376576 10.430476308150007 14.053667521614285
Ca 9.227302279986013 13.084936666997464 14.006732098481102
Ca 12.068182180914524 12.890720564065223 8.323893800114949
