8
Energy = -6.19704163 eV
Ca 12.931476650487935 8.40728376188588 12.49401798849087
Ca 9.61065206096019 9.884042063627447 11.580494460121754
Ca 14.463368350297046 10.291146614235751 15.220605996961902
Ca 12.55210107439533 10.665904334369044 9.538694701611407
Ca 12.213178775445176 12.153982043161694 12.92228115047099
Ca 9.191396084814631 11.843334467273989 8.477544939055873
Ca 11.737052303234226 14.18473417721962 9.764553393525048
Ca 8.817841490891668 13.41088266669506 11.79364573828302
