38
Energy = -81.12999755 eV
Ag 6.452489813791758 14.569164374534493 8.939033408491897
Ag 8.79442427075091 14.597843472964687 7.317510917031032
Ag 7.940150823908726 12.222385117967304 8.718150057662593
Ag 7.06989804597765 12.926799831716718 11.299168707249855
Ag 7.749152128886083 10.179728708213732 10.669631745218672
Ag 9.022486185168312 14.604972657484579 10.036939096494903
Ag 9.779421278997043 10.144201170555391 8.612091388822993
Ag 10.711505599664639 12.768586774443024 8.384881728961947
Ag 11.390341708092345 15.381479533524349 8.287721866007296
Ag 8.227578508212689 8.718299130712328 12.997030935570544
Ag 8.204702041919107 11.419006857690652 13.386415365000943
Ag 9.873410351283855 11.985390070412656 11.008198741317358
Ag 9.174948816767031 14.056732235501249 12.820027888762931
Ag 12.2993546823226 10.83108261954791 7.278883890726973
Ag 9.66641969993949 8.106315468110473 10.460945470085335
Ag 11.633487403801679 14.469678977360473 10.930295510445784
Ag 11.871852825196507 8.294670177508623 8.558949714510254
Ag 12.289186376172697 10.733500522766567 10.152073272532851
Ag 13.371188820401342 13.353508019055704 9.02179716622072
Ag 10.310134498283514 6.94313170042616 12.987135032358273
Ag 14.178146108329578 8.83145108027879 6.9563354160231
Ag 10.43330887036119 12.508625261641534 14.839374775224451
Ag 10.86752121728924 9.786657360728734 12.625185614488789
Ag 9.781909955948784 9.73733361250085 15.174139499896494
Ag 11.616681027934597 14.943898739790797 13.649601787655186
Ag 12.374823380009843 7.690714816819559 11.240112423517905
Ag 14.90374557018658 11.175801372144992 8.264086595274868
Ag 12.266966350147582 12.217088956892141 12.620612886436962
Ag 14.104395547975104 14.205273686046656 12.364642598622332
Ag 14.45380305527539 8.901903280302264 9.78235665473293
Ag 12.55241036939164 7.988526145076995 14.167261208650126
Ag 14.905386999671384 11.875792883382708 10.948914959540291
Ag 13.185619467353911 13.387931384620954 15.221699422160079
Ag 12.50481983005401 10.627962581862445 15.078695692102253
Ag 13.894082372216284 9.704624164399597 12.416331161336297
Ag 15.051109185135676 11.88424484244712 13.76520235440285
Ag 14.932298330717593 9.242085366639708 15.001035262202395
Ag 14.74379779644855 11.551432033468854 16.55892865560288
