34
Energy = -71.97052297 eV
Ag 12.230744533064172 9.378536874426231 8.277844935094418
Ag 12.154115446670271 10.962152749443042 15.033617050335225
Ag 13.408978545993612 14.970847377758409 11.222360690079249
Ag 13.896755260016413 11.929158637350033 8.413685098947349
Ag 8.512297826667988 9.02919351351351 10.772778242861921
Ag 15.409636473474368 14.172498005055264 9.440635952895883
Ag 11.571952857891672 8.26521783846945 13.80467824825228
Ag 14.669999507792504 12.177047143243177 11.15409210965821
Ag 16.119151437933706 10.148026556979913 12.349722856069222
Ag 10.757920029082936 11.942546773479716 17.224754565200403
Ag 11.985398762706515 11.16028414212201 10.361279582347434
Ag 11.031425346751247 15.377829875342037 12.827872601952341
Ag 8.753553483273464 8.635137104252566 13.760079527668022
Ag 10.439110885449004 10.482413015070525 12.563111636433664
Ag 8.953183098762699 11.75316605856984 10.271874742826656
Ag 10.865697662931217 13.731039193409531 10.394975474709675
Ag 12.761415652278 14.503436343578196 8.487339124653348
Ag 15.758812428508973 14.304297932163076 12.493858130741698
Ag 9.957857229657751 6.913115010338202 11.90256144804179
Ag 9.248730876488336 13.190798502795195 12.804264924572234
Ag 11.014197726985564 13.649818519001332 15.099218985279487
Ag 13.408951705151143 10.010436981 12.70976122976611
Ag 9.2629514494845 11.267571232171404 14.998602714199786
Ag 14.439250226581114 9.610690688489036 10.075329813836321
Ag 8.747817120005427 15.3439536271157 11.080462861799797
Ag 12.212768766057353 12.702165130748126 12.728183934272087
Ag 9.491967399237854 9.94759125604771 8.262652887114472
Ag 12.227766207847903 8.167093027844095 10.966025995193396
Ag 14.668989439503331 12.139391796997947 14.056490192007793
Ag 11.043143439668835 12.232794964564766 7.978360781976319
Ag 13.480628582133246 14.720423903415806 14.15197887765432
Ag 7.6314604885208865 10.94613614552286 12.652033619218363
Ag 10.263950186932547 7.4591981959410685 9.158986282011497
Ag 11.248501840131338 16.40507380741609 10.149606805965256
