29
Energy = -60.00392612 eV
Ag 12.721922346175338 14.640569813920006 7.57173361764328
Ag 12.076196506865402 11.930144013756701 7.513999578912681
Ag 10.029292837023771 13.783672827345054 7.529684204617831
Ag 11.450433941298083 9.183675047517518 7.611610380794591
Ag 13.966773080455022 12.959854314818859 9.421099319454223
Ag 11.40338141125565 13.974494083729375 10.02050384714384
Ag 13.115627695609367 10.207062236987472 9.549480607773402
Ag 9.368754623745703 10.984390343576088 7.046567623818192
Ag 10.301473493304615 11.422403805690678 9.684774434186822
Ag 11.720403699763992 7.801637555759883 10.065156964257229
Ag 7.75189429644129 12.654396427356565 8.552970424535713
Ag 15.139745361552732 11.251760513363417 11.284193372963447
Ag 12.465846911754605 11.897489395076919 11.674825012195605
Ag 9.160363112153789 8.865845142078763 9.179619165731363
Ag 6.824219628850599 10.032839144112963 8.12763215071134
Ag 8.759257924646095 13.445012354357521 11.008324724455894
Ag 10.519122836232338 9.622907739431978 11.78829223405636
Ag 10.740643444167349 13.694095651292814 12.913582651102335
Ag 9.18880153847418 7.079864193471349 11.306363229321944
Ag 13.39755157424593 9.053469084882629 12.06336144092476
Ag 6.62656199115507 8.212707141003518 10.32487251674508
Ag 11.492215485147529 11.239425493356727 14.225629964376674
Ag 11.513173540034915 7.14273258684205 12.894311347884965
Ag 7.606083639763148 10.847289195135131 10.704820539966638
Ag 8.959966844515582 11.546804060877236 13.093686291239596
Ag 14.281582114137912 10.953245566934982 13.912784150538467
Ag 12.753449770301408 8.774192884702817 14.813682746401597
Ag 7.776279124306778 8.975700749114603 12.738421888236799
Ag 9.955887485539611 8.927889525255832 14.465687845684204
