44
Energy = -95.64009085 eV
Ag 16.159835079542844 13.616062499355648 15.983782754409814
Ag 13.652268337120786 14.32300429141394 17.154553011092272
Ag 15.906469762465468 11.804945012667234 13.764966601311878
Ag 13.909841697834448 11.926289271754431 15.726101495136893
Ag 16.751937651707784 14.444252880579736 13.333171437691238
Ag 11.436695556553312 12.567779908819748 17.00301998429293
Ag 14.100860658799027 14.545808919601837 14.37605838216709
Ag 14.411662961774518 9.522725069000552 14.280566933627727
Ag 11.533449142964907 15.14250615734508 15.457303978389914
Ag 16.153200922134978 12.729071293310605 11.138645816000835
Ag 11.817275354043172 10.065080553513443 15.603357553107816
Ag 9.121341988277925 13.92378655144024 16.145030789534825
Ag 13.502663076650677 12.54344627158799 12.376542679001517
Ag 17.172075152099794 15.303667758637888 10.657058497725025
Ag 11.39778611775857 12.537727228034335 14.235587727022775
Ag 14.599860391405848 15.15628919170127 11.637833389339633
Ag 14.000983865679762 7.621631693999089 12.19519841793686
Ag 12.353868375665561 7.599810278090332 14.5003356735154
Ag 9.213763257624873 11.201934934698583 15.44826822674241
Ag 14.91390184687989 10.200934326412378 11.511757983609375
Ag 11.952676109535123 15.005355259584764 12.587018179304255
Ag 12.165002905280005 10.008643228520974 12.639723523994107
Ag 15.210904689653296 14.246032138803825 8.948169188525535
Ag 9.849719732709842 8.889244473711239 13.894243576660607
Ag 11.228806869541257 7.150523370234072 12.017915304777842
Ag 15.19762607704607 11.386904916114997 8.903969092287154
Ag 12.614488279526153 11.362007022853046 9.977574073677548
Ag 12.540473927638818 14.259741817498822 9.9641239824023
Ag 12.516658532694608 8.6115234428685 10.014387761282155
Ag 9.849225140517149 14.975814152192534 10.629859205089147
Ag 10.59134713172003 12.392147236514617 11.563312210922454
Ag 9.41647071292397 14.521367206506111 13.465928524604196
Ag 7.201294422959468 13.047073987922763 14.332714620215464
Ag 8.35790760484628 11.025579758838733 12.777866701044506
Ag 9.864540260701881 9.390147821831047 11.073682770104615
Ag 13.207368897025843 12.911110846069052 7.525188849657271
Ag 13.07489018139724 10.057376841317524 7.570625816296903
Ag 10.482129779062939 13.002634396043613 8.589233053753034
Ag 10.403579734243209 10.081477574508838 8.457069510599911
Ag 7.865320984764542 13.996042357516513 8.827031968165405
Ag 7.610180233400726 13.496995120432103 11.595739633147188
Ag 8.331909800557758 11.398832850434468 9.916955756933673
Ag 11.099386880170135 11.597829827196708 6.201665622097873
Ag 8.463095759379636 11.736139275456056 7.144267229085716
