54
Energy = -118.33467314 eV
Ag 6.497166707555937 11.759103352411016 11.981719309644319
Ag 8.716433793987711 9.796194200702866 11.980956016522036
Ag 11.5720523393687 8.543525347690707 7.438687597256314
Ag 6.506399775070187 13.43736201555931 9.606154383865096
Ag 10.15107409917427 9.675285681634158 14.38617538713468
Ag 12.938562949228158 8.527973786217235 9.833709746877862
Ag 8.91081670705423 12.107190180802236 13.499537220273805
Ag 12.46531964379513 8.006188616055717 14.453699643083613
Ag 10.513215798986705 9.907908971172487 9.662671741048305
Ag 11.198741362717374 8.500072723124276 12.03694823391582
Ag 9.961776599031658 10.928552272224618 7.188172662528478
Ag 8.786726365251893 12.095288018896284 10.435093916772129
Ag 8.490950611113178 13.17750349697767 7.718672415499241
Ag 7.734138837832194 14.303750875663486 11.988951859585312
Ag 13.617275487695391 6.968315376675461 12.032883551312306
Ag 12.71816434038578 11.052996718012333 7.532518270709744
Ag 8.9331571060044 15.115693130524663 9.623873604904013
Ag 8.925527611924148 14.77965657983857 14.383989478887043
Ag 9.511131898236641 11.710988497920786 16.206995651035314
Ag 11.45337429938985 11.404551205237567 11.81574424555122
Ag 12.47036130996904 10.650055538608243 15.498671045497328
Ag 14.455737638929719 8.68954066108101 16.279162918819267
Ag 13.673486976948002 9.848967684960408 12.555300544051251
Ag 10.651543044446248 14.004663859630577 12.032914219106722
Ag 11.088726857069325 12.801801249385003 9.135857648760595
Ag 14.92388875396538 9.270890990296257 8.047754737709335
Ag 10.668664653499205 14.888847132585376 7.292424738987974
Ag 13.394987318223967 13.93714209934908 8.071949271716324
Ag 11.737704856839411 12.481007003323938 17.703074733314878
Ag 9.955972984000026 14.490691984339712 16.92163612816546
Ag 9.812790329902711 16.525587328539615 12.104891205875878
Ag 11.35850783466669 13.247426930381717 14.812543806760432
Ag 15.48853134113941 8.094105762809594 13.744327597604276
Ag 14.023094819733766 11.213674725270305 10.02901874328536
Ag 15.316952931150363 11.982098190193371 7.390617636206883
Ag 13.187173443958054 13.712095029965946 10.883749400516262
Ag 13.937257605116349 10.758442747177462 18.01594350727462
Ag 13.59733293382709 12.595124946669788 13.387483866488195
Ag 15.609249905611872 8.74798064486074 10.851623069217734
Ag 15.41772844948847 10.756855568901125 14.686709983831888
Ag 11.595919588502566 15.786470472222438 9.750372421272727
Ag 14.14834435864916 12.817018667497516 16.181945370367746
Ag 11.320173214727113 16.11992282421134 14.694734942812275
Ag 12.757767629496387 16.194698482475715 12.246101538179957
Ag 14.118392786924693 13.487408436022307 18.871006524234513
Ag 15.815921935380057 13.566723591736013 9.668804917288208
Ag 12.674342418741954 15.145925204956116 17.020125994394263
Ag 16.809650274891208 10.91914836928851 9.477771022997795
Ag 15.951363107778239 11.893254986036421 12.037109418612227
Ag 14.413990900138879 16.047592674591957 9.827572548010433
Ag 14.025472091465547 15.322571236445574 14.582108242542525
Ag 16.21609591607245 13.489277892542713 14.46169064000116
Ag 15.408801602939086 14.89554983036264 12.1829780120281
Ag 15.596424403884395 15.00822227966242 16.91783354494229
