15
Energy = -27.84829500 eV
Ag 10.41374833889451 12.095711662169785 6.647183437599326
Ag 12.329794698379033 9.10182287715236 10.681221501430626
Ag 10.93367944135126 13.204858660676532 9.082698262989101
Ag 10.919231955526486 10.448381476771589 8.713078396065216
Ag 14.7732571240733 10.346677737497124 10.650451721723208
Ag 10.962160656455811 7.705643530244058 8.720579022241036
Ag 12.383010106673106 11.85686657763852 11.070094948135164
Ag 10.839449222378773 14.007583317793728 11.886687518133362
Ag 9.460054612448449 8.90464938749433 10.684849438603399
Ag 10.63567690153188 10.188786163953917 12.936856625154876
Ag 9.481975330980259 11.769622813824407 10.938179859474022
Ag 7.8074646935828484 10.281008909387827 12.493419351925793
Ag 13.450798741063284 10.368617204256003 13.087278451459294
Ag 9.039964624673152 12.561180126391246 13.622698093520283
Ag 11.816131378728576 12.410255865610495 14.029615361239077
