14
Energy = -63.77533241 eV
Si 11.591830770993868 16.111603375977698 11.211567774118523
Si 10.177326931316552 14.418955188721762 10.41400396982963
Si 10.898940452221476 14.482386095226333 12.920909387769727
Si 12.701509932069857 14.02934418984372 11.087767890083851
Si 11.62447786759994 12.893513466874696 9.233843695179857
Si 10.9307145956507 12.488735478608273 11.744914918663993
Si 13.03401526373888 9.689283744027911 11.244755679663612
Si 12.49268961144559 10.31283939112633 13.542059348855316
Si 11.015496259341418 10.698809715229 10.066590679779269
Si 10.184875868617844 10.269008064852448 12.547910388903206
Si 8.91786839247012 9.710958546610152 10.544658439542253
Si 12.94287735012807 7.346078893682848 10.937947030769527
Si 11.908534478659544 8.143372798319822 12.91210398512403
Si 10.783309037215687 8.267903013358504 10.672777147594143
