13
Energy = -58.12079579 eV
Si 8.438091321815929 8.599272261996985 12.197629760624832
Si 8.216238020251565 8.959477595914356 14.505096390553685
Si 9.879132160901534 10.076849954693081 13.53777672535858
Si 10.52505726643519 9.356179208927898 8.724064850122053
Si 9.997435834589222 9.875288614142491 10.980174198725232
Si 9.056302499037042 11.512519704746966 9.632156829446345
Si 9.367332565454813 10.924930397941159 7.307990131944384
Si 12.86413757978174 9.796262012066082 8.225775187270727
Si 11.75159542414956 10.877629739402916 12.460336638250237
Si 11.471536995510334 11.773273346682782 8.156648508849395
Si 10.980051193851475 12.719809529224067 10.353584043452283
Si 12.874958002935257 12.86000461468139 11.727819764530164
Si 12.70570189855154 10.804405789980816 10.318940513221495
