10
Energy = -45.2364036 eV
Si 7.817466160673111 8.371781993862674 5.72367227830073
Si 10.04484513741497 8.195894060382992 6.970460538233477
Si 8.317308133409947 10.22889793831227 7.230702133488894
Si 8.502863912531724 6.158342708479036 6.841040008280741
Si 7.494906386249727 7.973639389281939 8.094739388744646
Si 9.434365708032542 6.620859930055542 9.051658244463457
Si 9.495875540953403 9.191068865399652 9.278741212411541
Si 7.031772833643229 10.015592743116272 9.407724181946236
Si 7.730160829000571 7.760856138407106 10.545639239009345
Si 8.565750999412728 9.91838187402475 11.290938416443025
