16
Energy = -74.19852284 eV
Si 8.957058148362156 7.320371007219416 5.9743279939706895
Si 6.506104842164977 7.237306378846886 6.406753211589999
Si 10.103255791436723 9.712749819473885 6.743982015647899
Si 7.454740369173565 9.509604505912954 6.035874946426719
Si 8.147294596478954 5.87696046058977 7.837091294627576
Si 5.854846567490394 9.205500190508756 7.9188801212964695
Si 9.59308069576031 7.796133243586961 8.296837373166321
Si 10.102247698291226 11.234740833930408 9.033268665318058
Si 5.9520211255232045 6.79468028150891 8.803599738112528
Si 11.599400482605576 9.041556543104134 8.965322757637683
Si 8.168503719624148 9.87055056180603 8.361963747611686
Si 7.765761689399625 8.018321117216077 9.784406214017032
Si 8.256012857224592 10.769098539597026 10.63727990475099
Si 10.639635210560845 9.929178856384041 11.084282420742298
Si 10.525367894349264 7.425647375564639 10.527887791595939
Si 8.703091345905788 8.58602331910176 11.916664837839892
