14
Energy = -59.53948233 eV
Si 13.455089981185155 14.857840695660999 9.01600593357722
Si 13.027959746082955 11.860639943356611 9.809084272971152
Si 11.902167487901565 13.693373197799655 10.812607581886448
Si 11.97875548250682 13.398819912688479 8.200544477628595
Si 12.33416061492184 8.403819730163471 12.929094401172168
Si 10.943547621766104 10.436294193377611 12.940787541482754
Si 10.550921816735435 10.993900118374327 10.198718980851487
Si 9.312768630542248 12.018675338814099 12.042709079905311
Si 11.317758268121738 9.00254550309633 9.016634931871016
Si 12.16096316016243 7.249634412398413 10.70145631931912
Si 8.163948367193203 11.474552995346896 10.017290419424462
Si 8.93988161938698 10.885428034708603 14.180236917554339
Si 10.515833010068398 8.833738366194163 11.2540465931239
Si 8.338284958695242 9.716823694414543 12.008563722641178
