16
Energy = -73.13959642 eV
Si 13.378484224058985 7.978139721718069 9.676407834443703
Si 11.781696322279446 11.004644196292048 10.673228028632504
Si 11.039260512875908 7.362492698189748 9.284147648734445
Si 11.961094233825397 9.482169483826018 8.493750387066875
Si 13.450443662564172 9.39393800097932 11.711233007160045
Si 11.289900455125414 8.61488083335848 11.24479189990855
Si 11.706084288381929 11.80562780176537 8.401865051102982
Si 10.087181304059666 8.450894372524145 7.382143453164857
Si 8.651191270361952 9.203279626727126 9.12779217061652
Si 7.620878392701651 9.311308020417878 12.160299894905622
Si 9.476001709731058 10.49228063005759 11.111464926143034
Si 9.309737324856968 11.481742686748106 8.736474930663706
Si 6.450565409291754 9.096131836596244 9.987456315937369
Si 6.847420357915998 11.16153609739281 8.639875513536591
Si 8.552539739193938 12.811870163475893 10.491331238069167
Si 6.817131889607652 11.295727882196973 11.121868848940235
