10
Energy = -44.40389892 eV
Si 9.638825582020443 7.951633872254941 8.37158432717438
Si 7.576244696934088 8.041626558518558 9.940288909806114
Si 9.63473450451016 9.597598846078393 6.699022922663898
Si 7.1933226214892265 9.00533926836107 7.553037328920253
Si 8.680531952424886 6.938436207275276 11.795846110296022
Si 7.867083040971825 11.23181092519394 7.133160842860204
Si 9.120051031098303 6.091250003094516 9.585638395446743
Si 8.85152893254211 10.179872697442184 9.16046957462487
Si 10.187307132313567 8.356995378961727 10.686492336740583
Si 10.239995958795431 11.606248312104215 7.987035219549759
