17
Energy = -77.80695804 eV
Si 7.109840795615322 12.472677492133359 8.306760475706737
Si 11.175029194953584 10.153328081312093 8.398643637557129
Si 9.069442513032023 11.183722261774347 8.306004804692487
Si 9.217470143549084 13.3628702912046 9.680898536347247
Si 10.976987356737585 11.777565732827867 10.191118776742744
Si 10.791228769697243 7.905907184105607 9.296793519197491
Si 5.659437268532628 11.48319177959193 10.029106352315255
Si 9.78046259868822 11.13966850038529 12.202781943215335
Si 9.44832328931844 9.632169951726805 10.30283772035765
Si 7.805514385017507 11.739340230624165 10.795510976974544
Si 13.086081688548926 11.138115925777043 11.231881821703345
Si 12.424019071621865 8.74409416959055 10.843725933298833
Si 7.185199360847292 9.8486597293556 9.02661653405096
Si 14.610568115024549 9.731973465128698 10.092462700608682
Si 11.895654500493997 9.989958771705972 12.898132458245327
Si 12.545321457109642 7.736701997685024 13.19534945195512
Si 14.410919659795013 8.728853877023653 12.218093337719866
