16
Energy = -74.16209827 eV
Si 9.339785841625604 6.572398563690001 6.592703965244578
Si 8.074340719219228 8.810419780519668 6.174754923832425
Si 10.558969960102063 8.72531093306531 6.592691979704929
Si 11.709698266714653 6.47003724315292 6.576932975473298
Si 7.016112540775104 10.70790754061095 8.065552324896412
Si 6.955555894351959 6.625940852202461 6.806721686973017
Si 10.640934856994951 7.018242179533044 8.640420043160681
Si 7.245339239176936 8.165021518163234 8.623222982919126
Si 5.71397127950819 9.428371802426557 9.85943163918981
Si 9.400048211871708 9.465244766448487 8.49154552151782
Si 9.138714887299633 11.754870934689206 8.996335992033174
Si 8.392340826611212 5.817639456984199 8.788286004746713
Si 9.054024145216875 7.833352907210304 10.244778864203873
Si 7.363529266760957 11.136560933046116 10.583488161012582
Si 7.531560279634991 9.102573344104906 11.810190534412026
Si 9.671712036278684 10.172745496295386 10.959580652822451
