17
Energy = -78.37003357 eV
Si 10.825358384621419 9.000884711302337 13.840661510753074
Si 11.40661133663693 7.755254323262516 11.614728799332012
Si 13.001685649250444 8.36111083661129 13.41161553736927
Si 8.675620959059023 10.074067923786535 13.830183691401764
Si 9.357100553811158 9.187607714694744 11.743352236850184
Si 10.35108350853958 11.451589085087061 12.86108403409737
Si 12.391224856916285 10.362041511982666 12.2510916504656
Si 9.702227214233387 13.488620344788742 11.866520928415742
Si 9.817146808527449 11.800749118991394 10.204980160377302
Si 12.439893694831024 11.470153061621623 9.49293981770159
Si 11.192522678802955 9.537117349590583 10.010927521720175
Si 8.866813058746756 9.726534815134363 9.45300966612232
Si 11.994572532087593 13.479513602939667 11.090360214578569
Si 13.94478403589646 12.06127505284206 11.217489320527815
Si 10.898082847664288 13.156453568172285 8.508020833851674
Si 11.606493096528096 15.260624554364561 9.443577038755945
Si 13.401491012133313 13.79336958659337 9.082595976219611
