11
Energy = -48.69616675 eV
Si 9.152532426835531 10.990879119262711 8.391908668931066
Si 10.256845352413423 10.563359144073063 6.428217947121189
Si 9.762340173966733 12.037759332940455 10.504887119945115
Si 11.450434087868166 10.362724616981552 10.562533108203528
Si 8.021814347384943 11.651894718041364 12.095794056448701
Si 9.131351271902858 8.5489087957708 7.513771005569331
Si 11.381444685422302 9.505702130042833 8.248228762679414
Si 9.464174950370683 8.983439145957492 9.745619562742961
Si 9.885208322716535 10.450802337275132 12.562489227958054
Si 10.008363197611109 8.07382896170042 11.870312150409655
Si 11.999545823510932 9.317648975909789 12.565992689958815
