16
Energy = -73.11324694 eV
Si 11.522391898204448 7.107370271506278 12.815705058907358
Si 11.654576686113987 8.200664042001453 10.642215024591115
Si 13.525034382344202 7.057575101677614 11.497582915952421
Si 10.7672521242264 9.280822118630283 12.736659119145916
Si 9.627705752685454 10.838947867897843 10.412427382803036
Si 11.037870775947622 9.664121100059392 8.818012690103691
Si 12.209313363344469 10.69825195793529 10.572093502620078
Si 13.148154832622104 9.2474225720864 12.499911989190325
Si 8.944894760724031 10.810504152940842 12.80256612881019
Si 13.108002795589845 12.632258514325041 11.686411917065353
Si 10.115896066523089 13.110089839583095 9.93393313184319
Si 10.815793057685996 12.186685513871254 12.28574305845113
Si 8.960789190081288 14.430847229478934 11.629532488734853
Si 11.367079866616617 14.609066118484098 11.7625444596279
Si 10.141132705475398 15.430817556770936 9.708633268597294
Si 12.324805237951773 14.168456117158152 9.559621104433672
