11
Energy = -49.6129784 eV
Si 7.188021842651277 6.607795921207513 8.620156976170463
Si 7.4112046200913975 8.079578960966263 6.592077155409909
Si 9.527170999837834 9.052570426492041 7.1913969084458085
Si 11.084117091755546 7.516171060965128 8.168761774488868
Si 9.245620818927133 7.262830535839702 9.685059165151266
Si 7.357303908699943 9.959341013150874 8.01527023268951
Si 10.712063687850385 9.38562648463227 9.471209603208798
Si 7.13147299949156 8.553940410253295 9.952850649736956
Si 9.31018041546065 11.207463063909168 8.171194004192811
Si 8.938435239058185 8.906352714596322 11.37106846187269
Si 9.822123191297848 11.147530834082637 10.635352146308614
