10
Energy = -45.40390651 eV
Si 8.282451922121004 9.689341566398728 6.966492654462321
Si 7.529284380029283 7.368898012970902 6.4839191218285315
Si 6.068176382935361 9.433199154302143 8.061917956528356
Si 9.440474286648582 7.557803411765178 7.810621117448173
Si 10.178015955551999 9.953304911725407 8.383855212872783
Si 7.1367148628459605 7.365012392503869 8.936261482993643
Si 11.251917023225378 7.887238991783403 9.247145205675375
Si 7.874837766394607 9.75868424792027 9.505032218184578
Si 9.036496700857631 7.62450990715154 10.345990577412259
Si 9.781790875197151 9.94216755928578 10.838924608401193
