15
Energy = -69.33530591 eV
Si 10.58130104911031 8.732665792084317 6.089322375608584
Si 8.528088330339205 10.053687816810653 6.5191712211115656
Si 8.199532294665262 7.73617234051468 6.142327103115488
Si 10.252849754994433 9.026009063240444 8.389484356677983
Si 10.17465410841835 6.389524263021712 7.287570483595229
Si 7.748978911053031 8.508923287969484 8.454772285872656
Si 7.742709187750029 6.116899968303109 7.896420861019337
Si 6.804669552074778 9.524799028333188 10.33589814461786
Si 9.425374610922143 7.107327532936435 9.522071288917992
Si 8.508622826082364 10.951289125594599 8.875510894123831
Si 10.851975802456288 10.83887791507521 9.828899375900662
Si 8.331160119294982 7.987023389096824 11.628302337373135
Si 7.177568869533537 11.94428177137398 10.572572834340143
Si 10.715674842412582 8.703105712571878 11.127507468951363
Si 8.934750136005428 10.357323388186837 11.308079363887197
