19
Energy = -87.46284463 eV
Si 15.281025790540406 9.212130686469946 11.71371838086803
Si 13.70288816341607 10.544525141903176 12.970255621624172
Si 13.922287923414508 9.206475399059862 9.679815063853223
Si 12.649158341926853 11.23889338508732 9.013987349645737
Si 13.168702651995169 8.114747863525395 11.992047335102257
Si 12.280529660402724 11.624038105782757 11.305357014818057
Si 11.608451651664339 9.346039083009654 10.319272637919365
Si 9.404943605816484 8.827566605792944 9.612783725249077
Si 11.46029979770647 9.702514766796135 12.72729712770999
Si 8.483631798546691 10.155930591044514 11.319936948174286
Si 9.326977692798728 10.303005466440398 13.611484493639585
Si 10.19924943665231 10.97634000097693 8.713697817565109
Si 10.115080247048514 12.04052307935941 12.161697501689284
Si 8.805111969958347 9.499936713907884 7.400801306921699
Si 6.531300332083321 11.241026126398916 10.516718746062208
Si 9.354570018868424 13.140838949365342 8.247856212392845
Si 8.59380293319558 12.49128471478666 10.378209465714633
Si 6.567877630520927 9.643528303414962 8.511894027076094
Si 7.464132483885594 11.679114291896758 8.091474830657097
