10
Energy = -45.93436379 eV
Si 10.188589338625441 11.342819244792178 9.655472837816431
Si 10.869425210411434 8.883022767315232 10.647327750388952
Si 9.182224586321539 7.975137087608022 8.644831721909362
Si 8.337718970696963 9.720616562162936 10.64789957994526
Si 10.026026727310157 10.817774446882359 11.942631879533248
Si 8.648244373855562 10.517423242596166 8.024044676330043
Si 8.981829905202344 7.372631357553419 10.884499137968993
Si 11.218566605413978 9.662055882287085 8.416185760515978
Si 6.974633867581361 8.990769126541707 8.908045965674999
Si 9.923869998796231 8.95492301906244 6.589395799361943
