14
Energy = -63.28119399 eV
Si 11.658815754463124 8.642429944142785 8.260627950554586
Si 9.725489295694338 11.894397203479901 7.9900759500313585
Si 9.070180762721845 12.690315576260751 10.060305947166249
Si 9.484702891354397 8.023752430548166 7.4981048551320955
Si 8.997816496266388 9.820838673346163 8.951012184664346
Si 11.07438154031225 10.947997792751586 9.882871985317877
Si 13.230674849010887 10.026676007447863 9.376000652545587
Si 11.884017551757864 8.736753070337528 10.862285687009546
Si 9.878615400461054 13.260251780463754 13.667161739344522
Si 8.378223890243877 13.78160608746385 11.95163076197143
Si 10.269639662616905 7.170586107534345 9.58928362614025
Si 9.46493164557938 9.442766016295037 11.239559054797223
Si 10.344263781730124 7.323679656695015 11.953310264867657
Si 9.815434060224597 11.645276014219858 12.051046314717244
