18
Energy = -82.41888867 eV
Si 9.990925857945358 11.786912986410087 13.874435940850384
Si 10.257131453006686 10.417134956822082 15.924960953429721
Si 12.305961554065526 11.06038367039188 14.76241176597889
Si 11.596300727039864 13.343866679802463 14.72494238312368
Si 13.383733215554878 16.291574207235737 12.552314219151798
Si 10.897609702445605 9.05727737665161 14.161323630455705
Si 12.663136302613815 13.703105782646738 12.55850997506091
Si 12.589039485212748 17.473424674723898 10.652498304808606
Si 14.814602876251488 12.443324002753275 12.593210503765453
Si 12.671300168965459 15.142104704197658 10.383718770427706
Si 14.841874570308411 14.590360399867995 11.635510741460143
Si 14.749084985350883 16.38005076964879 10.16314416309904
Si 11.339195057083957 13.17417730054776 10.452011810623418
Si 13.24432559260232 9.104032286421788 13.41866517790858
Si 13.206162933641851 11.841101922511404 10.9335308326028
Si 11.122925226472983 8.24875203904149 11.937560558757696
Si 11.391177306353148 10.64595367821518 12.258429003983341
Si 13.035989556808744 9.340996486730724 10.99172926071877
