12
Energy = -54.0324097 eV
Si 9.030659951538679 8.70975831361397 5.936674428054182
Si 7.428956827083572 6.682325177051032 5.988911407826635
Si 6.518072997179879 9.17930396976023 6.3138624785422515
Si 9.694685262607543 6.485503625668094 7.2163567082174085
Si 8.233212198653495 10.485850857315695 7.737213378458896
Si 10.215424583496583 8.83798100937741 8.287821620994267
Si 7.67285236193874 7.942645353601738 8.045563210567144
Si 7.603570860951774 5.54194576057572 8.408677434175228
Si 6.126405797973323 9.584145199431957 8.930215513717256
Si 6.797242728547733 7.3365520724185505 10.226973432655969
Si 8.403361573627903 9.359912183840189 10.130773096371943
Si 9.309257958319733 6.887779579263427 9.810660392337514
