14
Energy = -65.1626231 eV
Si 12.106931798330447 6.912040170430028 11.032771045346909
Si 12.407389020103624 9.325740311822518 11.176162564775677
Si 10.275628795421447 8.193064980748392 11.856396209470585
Si 10.711230852341194 7.987031673625889 9.406156298273478
Si 11.37540496127508 10.619748407785638 9.51300169511737
Si 9.446738173326386 9.713002369654834 8.239302287557365
Si 8.390454237013806 8.367642936364001 10.184355136687179
Si 10.739022834423931 10.871280902169561 12.06935989450658
Si 9.853574933939448 12.40750948070519 8.255226121768256
Si 12.139712348378728 12.781905592621076 8.760185239953985
Si 8.90406716524759 10.883905526351194 10.35894077854847
Si 8.55346944636206 9.69101328372437 12.45471221831926
Si 8.328806128905343 13.154217031586526 9.93948450851592
Si 10.650764607820589 13.017954516897781 10.607243531126818
