15
Energy = -69.13145403 eV
Si 6.772376392823142 8.36893229889604 6.254829536015895
Si 6.746879516438475 10.809938422001403 6.119816141262206
Si 9.088203544334178 9.892605065088329 5.936777659414646
Si 8.991362207885839 7.963149794439582 7.464613580969526
Si 10.360694007265336 9.946561759457987 8.111760332220449
Si 6.89780882949842 7.666746957367524 8.610066719222248
Si 6.018558328381978 9.94503369385476 8.299267365928149
Si 9.41458233476817 5.764063248507861 8.272275753895384
Si 8.282396037041007 9.460226752047245 9.392350760949965
Si 11.193287776486228 7.408087038839693 8.778729632558058
Si 8.347175450291072 11.4591333526035 7.956892829733991
Si 7.533248133683236 5.882743237419084 10.114233635530905
Si 8.130951373259219 8.13012131681866 11.379274197998539
Si 9.867868971826796 6.480563033769391 10.632480350118449
Si 10.409735246080745 8.877222178952906 10.73175965424584
