11
Energy = -49.86028867 eV
Si 10.456834558889277 9.12781353254516 11.345178079181961
Si 10.026449588889095 7.161899435426255 9.857795965032983
Si 6.1780701034734395 9.13079259800068 9.299876479151383
Si 10.029225552495554 11.095290924180093 9.858787206675848
Si 7.714603590538222 11.184002091688185 8.970376936594835
Si 7.7105215058677565 7.074166189574772 8.972805385966483
Si 8.284363952171605 9.129512262569671 10.42073211501047
Si 11.435545289493596 9.127641291305165 9.079701839117384
Si 8.194932451298756 9.127796767298753 7.794597910109703
Si 10.192522713476569 10.47066876348 7.408641512431756
Si 10.193044216516634 7.78652966704216 7.407620093837436
