19
Energy = -88.3408461 eV
Si 7.2403521392400965 11.812638580757074 9.332928704743107
Si 8.516478718427143 12.039954370928601 7.168597965505982
Si 10.93957332500922 11.582459111561707 8.02795719072368
Si 9.353542977690404 13.356444298682218 9.089145769069448
Si 11.257176173412839 12.416104566329116 10.374418656974644
Si 10.759097918146935 10.110681846511259 10.082086324279285
Si 12.111226714318592 9.192699943712368 7.9983084017936195
Si 8.54748546410173 10.426976876317603 10.995134955154695
Si 10.50678797214634 7.457561092349778 8.247763819973196
Si 8.896296295126382 12.723567635823434 11.36017720396612
Si 8.127913471118475 7.888909127850738 7.90120574984122
Si 7.467021350132806 8.56277566232607 11.953460577664591
Si 6.74031234717613 9.140004293117226 9.666642166672577
Si 8.892273799229745 10.08183133789455 8.406619564417383
Si 10.19235700241718 8.435010633314413 12.001549657308807
Si 10.530049586632934 6.297139418719605 10.895520278234416
Si 12.129122037790566 6.0652788720069335 9.145415681446936
Si 8.530983138339849 7.267435788779127 10.216185832347612
Si 12.366484588988554 8.247061743018289 10.241416579513277
