13
Energy = -59.36594692 eV
Si 9.489396400363551 9.472169793022719 11.466306120240667
Si 11.668645688213763 10.106659088170765 11.654701063353578
Si 9.032433797980627 12.256105847135371 8.955973027257352
Si 7.624107995078249 10.59748863531853 9.976291462808001
Si 7.3100384091882 8.83410089838529 11.643118528123662
Si 7.99162560399036 8.004032402427216 9.49324202910815
Si 6.4992175376408 9.36734945882867 8.234387472618446
Si 8.591947161027155 10.267858071373738 7.6675830910663025
Si 10.987479970910057 10.9747818257575 9.519883185660483
Si 12.480999510086058 9.634095156767646 8.238139831485487
Si 11.354303995236421 8.372833879534491 9.9567703429438
Si 10.388510794904857 8.744622831228362 7.653574698094673
Si 9.94668720719029 6.733296183859958 8.90542321904993
