13
Energy = -58.06235327 eV
Si 7.121070744144314 7.4278261798847804 5.939477189414182
Si 9.641478886565988 8.142975838754344 6.1813411079847125
Si 7.754076306261669 9.906359908235379 6.23859682274409
Si 8.654122939037604 6.213793342962571 7.521330644413746
Si 5.771879499679364 8.9955586514864 7.470233987970382
Si 9.739117133059041 10.150947712457267 7.863824504420146
Si 7.3195874476213625 10.600249301788255 8.60569698982698
Si 10.123009704534146 5.460980583690849 9.294994618442178
Si 6.255365885851667 6.586493196152579 8.284876468523045
Si 8.232891618183181 6.883212507644733 9.885862203070413
Si 8.89893618335264 9.326812974792908 10.223208841824611
Si 6.391503350422452 8.606499107206956 9.941987686951949
Si 10.200687971054624 7.8020183647113015 8.652296604181215
