16
Energy = -72.74632073 eV
Si 9.956841884788034 8.826349448155865 10.903212791442837
Si 10.307751451106158 6.418818108936106 10.079672471437892
Si 8.146660907136125 5.4423285957299425 9.43645159101652
Si 11.242920995766845 8.338061710312788 8.908345682696575
Si 9.217436605504723 7.1696124514952295 7.866124072085806
Si 7.603467939587719 9.39241456856594 11.010748663173295
Si 8.145114349657796 7.035510874309141 11.316997038737501
Si 9.94822100100949 9.144013687611828 6.382664692932953
Si 7.553456867132123 11.977573633726935 5.186740002100466
Si 6.944529781979701 6.113169960964937 7.041379756178032
Si 7.137932507602461 7.756506174106969 9.080790991828811
Si 8.872829525839775 9.48092068131725 8.690208344214085
Si 6.364399006452585 10.120829459308235 8.530836331533218
Si 8.111231043937618 7.694705943733122 5.619852585258837
Si 7.6480331747378365 10.026007521697759 6.43548363663191
Si 5.894912005673804 8.298981798735928 6.928572060062106
