13
Energy = -59.67477899 eV
Si 10.830707764582334 11.077002659509683 11.559673084625906
Si 10.341902165001601 8.595120532778736 10.564130380419225
Si 8.049999209027924 8.703067932174473 11.159736674585897
Si 12.324458593647465 9.125370785073997 11.591886977766844
Si 12.209809793928494 12.526756441501444 10.303415210289746
Si 10.101314768935604 12.150223164378568 9.273529364671106
Si 9.079318742396305 7.488749847194952 8.81315546357177
Si 12.197653767780878 10.24083077573999 9.436778213580206
Si 8.452488737470286 11.001951754949937 10.594837074327817
Si 6.763895041104243 7.4670922959943145 9.597963285698686
Si 7.433696988537738 9.566745623108412 8.735366692192105
Si 8.767347423622619 8.82815113754096 6.812010305362924
Si 10.068620740747578 9.98371725323655 8.302278826209628
