19
Energy = -88.87616875 eV
Si 10.491230154182318 10.778003222991718 6.715561425320338
Si 12.2013995833011 12.439075515438324 7.24517743670214
Si 8.399298556509436 10.989508614244084 7.789552071633046
Si 10.330425513057325 9.246407609385768 8.534010871742293
Si 11.895250397377382 10.954226384872285 9.10674614115864
Si 10.228546397130255 12.732762044877065 8.505481130434742
Si 8.157458242274613 9.196593021090113 9.435494579767624
Si 8.106123627659775 12.783497864030203 9.459997387069343
Si 9.488018704448432 11.033288382094758 10.295390436170987
Si 12.774935271097995 11.085270437486436 11.333851336194906
Si 11.96019976802732 13.200737546644477 12.314313249511567
Si 10.640462974485375 11.05909836431677 12.377071913615756
Si 14.615657611091361 11.20634841928243 12.808925434068879
Si 12.105178704433564 9.011188455413686 12.5003167303926
Si 10.731043954307134 12.506080346060145 14.316288348533561
Si 13.294464647290923 12.550382365693483 14.242994025282323
Si 10.815380896152895 9.801884480529118 14.43430219087961
Si 13.373758575204882 9.929362200037115 14.36385794155669
Si 12.17957744736542 11.284695750909849 16.009078375361984
