17
Energy = -77.81438652 eV
Si 12.364847084548847 11.216988578761654 10.196449049588674
Si 10.501190399362708 11.55933174597226 8.695600421194438
Si 11.8841902256965 11.845567707289058 12.563631102341596
Si 11.416126122841808 6.893561721214573 10.48863504172604
Si 10.392214073739762 10.000936658173881 12.881658387409969
Si 11.193532758793888 9.248285204310504 10.64950242506527
Si 10.829326535597259 10.80722814934488 6.119378690089494
Si 9.439307377098599 9.682134230844683 7.775778278736013
Si 9.50006871012441 12.79438676905542 6.920134006502593
Si 9.288352852184115 8.074356713468847 9.572304786459943
Si 9.172430886737008 6.014120675813768 10.626299312116293
Si 9.967698072761333 11.932701638897505 11.127185574533067
Si 9.842548338492222 7.542181553623757 12.364080570472431
Si 8.322103171725932 9.036143401152618 13.439500928944826
Si 8.559384277425513 9.847481590077656 11.129406499265343
Si 8.35581854352864 10.859850144867275 5.96650281040427
Si 7.938637190950954 11.462956756406863 8.406048485386533
