14
Energy = -63.31264957 eV
Si 9.046977767923316 7.77340389061024 8.77361124899557
Si 11.563102220739982 9.71505791815626 10.746173633414157
Si 11.038547396643112 10.224250033965255 6.36553967904844
Si 7.485727473749739 10.902601234765475 10.878620502608891
Si 8.127955226780342 10.01496591347379 8.69888819875428
Si 7.81626781093956 8.3414697399911 10.828325597354738
Si 11.208251288415351 10.135724407963233 13.336168714230237
Si 10.165181122840124 7.6622888791963 11.13158366727927
Si 9.39490027120599 9.86857988816107 11.949117539371143
Si 11.412690611408516 11.980383908285058 11.785102482836757
Si 9.691297707767113 11.629900262929867 10.05485047255268
Si 10.721045430528727 7.9389202827677625 6.904028735286686
Si 9.483512854142987 11.721596485818928 7.575926790145592
Si 10.557400523265132 9.705904508159188 8.591986994161049
