17
Energy = -78.55238632 eV
Si 13.500321630917709 12.18990475331988 12.600438583435254
Si 11.473085875370566 12.907321855075832 13.535117801024033
Si 14.007836759595621 12.434443520584404 10.339365553648193
Si 12.527779765372413 10.905280643244208 14.27797062497913
Si 11.703953477747673 13.08646009635313 10.607292354566283
Si 12.448110185808144 10.629457302603074 10.515164918170763
Si 11.062535961919638 11.833488310296463 8.425079605323312
Si 9.860373775537006 13.735959695366846 12.03222134177108
Si 11.326210510990869 9.471375747815516 8.666180473295368
Si 10.242323885615184 8.438786373387433 10.84518594959542
Si 9.830240561409477 11.402778263788424 11.701422942030339
Si 11.406349239599054 9.828912024602086 12.457759392279078
Si 10.742213125596484 7.127690566009327 8.922446445053383
Si 8.158821437155645 9.6025143212528 11.115900005287259
Si 9.095021456844762 10.919499469839177 9.225456368869386
Si 8.748324798355887 8.436448462683776 8.803568694185648
Si 6.975812385526091 9.930798956615897 8.93256117683854
