13
Energy = -55.68754311 eV
Si 11.043739869423332 6.034456140332991 8.967849412054543
Si 10.40669933407528 6.038716746961344 11.21062660378782
Si 11.109076593639507 8.15959815167069 10.375497062337878
Si 8.660488309173669 7.754253551266688 10.909716815035392
Si 9.36235333428762 7.745604197886549 8.603686742026914
Si 9.644323447369413 9.543795703269875 12.261224174392675
Si 9.382185725132576 11.489147078515638 11.039015891188402
Si 9.954532278794732 11.477564666493965 8.84695815449947
Si 10.978370337605563 9.61904992981112 8.020432512998706
Si 11.687587019422876 10.546877068906328 10.596294114552736
Si 9.581185920931755 13.854086298506383 11.448133752556723
Si 10.516723242888844 13.748778946283792 9.217531733456966
Si 8.736377152432244 15.129188935408736 9.696809658170801
