13
Energy = -59.74481916 eV
Si 9.152063383107931 9.431345495288241 8.120673804625325
Si 6.870289054852695 9.430990121568385 7.3953573864182305
Si 11.271640154436035 10.837018029595383 10.779823421041359
Si 11.272634571672958 10.835962910810846 8.082561101623703
Si 9.394666776762687 11.587662469158255 9.43034788268157
Si 12.733027053136123 9.43080472284176 9.43257891606552
Si 11.271960929016377 8.02599671156516 8.08314176446111
Si 11.270986337567985 8.026462087946186 10.780794152768625
Si 9.394080383493083 7.275603664412397 9.431599145881584
Si 9.151645477611025 9.432110742750123 10.741796913153118
Si 6.978413377358731 10.714087321610943 9.431102491130792
Si 6.870033362250504 9.432339850901421 11.46772556771792
Si 6.978018129490463 8.149074862307359 9.431956443187607
