11
Energy = -49.89882058 eV
Si 11.067529856292662 11.27633700560214 8.078741177953694
Si 9.880070969843322 9.417409818669563 8.973558478246206
Si 8.459591128209636 11.215442926237227 8.096771310445478
Si 9.761758875326663 11.801290941070238 10.264471514810356
Si 9.6757375402116 13.231401979491094 8.427233906377722
Si 7.8300459233386865 10.324120471207047 10.310364767416475
Si 11.213078124520916 7.705600807621029 10.129792325411017
Si 10.936612064092417 9.84388491012914 11.322129043570488
Si 8.914639288300366 7.24419656724929 8.987673177209773
Si 9.011289145743943 8.362155914794227 11.329585331453732
Si 9.657342674156748 6.141927819541483 11.019048721236727
