16
Energy = -74.59185498 eV
Si 8.102785953370537 11.349413922118371 7.816977181270158
Si 9.557844416220096 10.055279649762983 9.594846495792805
Si 9.884092979007747 9.959359602241319 7.15314172421019
Si 6.899227042351852 10.569531405538626 9.911720326283444
Si 8.71100024340325 7.654035039841926 9.282328277528869
Si 7.387397232373467 9.072530788776477 7.4607534769087
Si 8.168934502661028 8.982211460178497 11.267473241110931
Si 11.061414528519466 8.301713436619549 8.734580919392826
Si 11.291434878618913 8.344612777239561 6.2913986424618615
Si 6.287411699342666 8.219382859433289 9.491790485785193
Si 6.837328092462869 5.798703041797093 9.164475737551365
Si 9.089496593717591 7.433151844113722 6.666798003557241
Si 9.200362501252561 5.535160591301948 8.308428695160925
Si 6.900124833065016 7.786261171707687 5.488762200633845
Si 5.495756898914496 7.1709973233303455 7.3888137701501515
Si 7.2597272320810795 5.631578226881845 6.732458937658839
