17
Energy = -78.3307154 eV
Si 9.431251053052844 8.347361629218593 10.988562463675384
Si 9.603693497716948 7.721195348430097 8.616239279566027
Si 9.96928865323469 10.598239826148037 8.456177555569981
Si 9.202147228359372 5.91308246380603 10.428933655945247
Si 7.65687968656374 9.017950531147301 9.434701375475942
Si 7.191610969873729 7.244387434023843 11.25732988993003
Si 9.857626952140437 9.267928746384177 6.5224152183949915
Si 7.8849683933119845 10.60807714145949 7.367198369175816
Si 10.5052514101253 6.8117129725664025 6.498535053270022
Si 5.669382449435182 10.117291450122954 8.505910761319367
Si 6.881999191350338 5.537086637029867 9.367201774946414
Si 5.572189983891891 7.589584216281946 9.344704157831265
Si 7.358552126788595 7.309472160599565 7.673296008608484
Si 8.867457357987956 5.384059295003932 7.987023685092849
Si 9.537486642457193 7.987711526757374 4.582613206483451
Si 5.90960115249437 10.478872980478389 6.09444828668406
Si 7.505247929365212 8.665996392715135 5.748751555654631
