18
Energy = -81.86950579 eV
Si 12.599960556105978 9.131138642116351 12.470232161865232
Si 13.563839797219819 8.719893747862981 10.121530259740792
Si 11.150778168482862 8.830598297154614 10.25121294723616
Si 11.705646679306277 11.423621393011338 12.879605225315267
Si 13.427272931377404 11.062735095429376 11.122214790554375
Si 10.120910481415613 9.513922915463837 12.295223331157539
Si 11.778983971722425 12.817261554566343 10.685560624446927
Si 9.64757793857368 11.752670407256597 11.424215642959622
Si 7.523155895677124 12.69739038536198 11.604513031401847
Si 8.02759342708303 10.545303819349197 12.99140681842007
Si 5.915571395606755 10.713442307357834 11.910704865017696
Si 12.38741816024881 9.615598189072747 8.15390203448005
Si 7.600185202882744 10.51897492392765 10.385495271728189
Si 10.92359295004999 11.06369975949838 9.244282578510923
Si 11.21925857877628 8.5934051400499 6.2811598836989955
Si 10.022048830358425 8.286608908390015 8.260282274712722
Si 8.797588215551059 10.450153835488145 8.397377383952016
Si 8.788038399758687 9.192149931589114 6.403034183669989
