18
Energy = -83.14299698 eV
Si 8.07217521143179 10.729205253394356 7.896567720459831
Si 9.324246260890126 6.57469217423002 8.994387260669466
Si 9.384753067139544 9.929208019679075 11.515782183177608
Si 6.905349818952054 9.155404871026553 9.595389784775346
Si 11.718070930182726 10.18714067067247 11.788430715858727
Si 12.763071208450077 7.9650044094611845 11.046303201023552
Si 8.26211907183253 11.704073523854678 10.410458775718364
Si 8.363289281734039 7.821544136022548 11.047721834792371
Si 11.878745261906444 9.407019909677754 9.320543342107834
Si 10.81383078684997 6.567015017586651 11.066324870753137
Si 9.557736904288184 9.089887881308625 9.230105469673665
Si 11.810931206286607 6.961273059751022 8.912812012425281
Si 9.95562941287844 12.203233443048285 8.375805503397023
Si 9.406328410949085 13.787458093764533 10.161402510239123
Si 7.945417498925568 8.335461868386766 7.600838162963082
Si 12.216659381227194 11.649638629251315 8.57587564105486
Si 11.117929971246133 12.16413514768326 10.603340770749778
Si 6.185512964138098 11.399531381812443 9.265207010906845
