18
Energy = -81.99813526 eV
Si 8.964737745884872 7.797276076604583 11.294190035926462
Si 8.594206079703913 9.389078780332117 9.468355999386224
Si 10.155312192962668 9.792667547401967 11.642407011339122
Si 11.063272083453093 10.504678515853099 9.485485371270391
Si 7.187284015882683 9.518896533659122 11.351183296639382
Si 9.692685248224281 10.175994543410392 7.538597597455019
Si 8.408871943968828 11.525274434957204 11.205733942256424
Si 12.837845775690596 11.864980882948892 10.546595532317259
Si 9.181393133907623 12.098517787220537 8.951431946326252
Si 9.716223581599055 11.858605245533383 13.234090365944553
Si 13.622189876994215 9.805808609421375 11.602468298431662
Si 11.282568445711128 13.220160743993057 9.405321939688964
Si 11.975876958625225 11.12091037180234 12.783908322540068
Si 11.118327785261629 13.31429221319197 11.82676006527456
Si 15.112335104039978 11.9352483207089 11.484726551347306
Si 13.316915915300301 13.369246954346508 12.724271664017992
Si 14.226213498287583 11.177708197047414 13.731223752067892
Si 15.447070843557713 13.356934514904525 13.509582650402198
