14
Energy = -63.78639177 eV
Si 7.817995396484762 7.913838441847544 11.263060052855085
Si 12.019021337925844 9.2590977595109 11.369858830399611
Si 9.284127583134454 8.37511319740136 9.274488857838952
Si 11.61476523400228 8.313930205637936 9.209552300205907
Si 9.62298949915466 9.504426366714636 11.490416416521722
Si 7.276673229305739 7.134808970297351 8.799667235175491
Si 5.603726953983015 8.162140268149976 10.357887565549559
Si 7.8671537568596985 8.894020156652736 7.160132492140341
Si 8.811922522899712 10.952485187988914 9.88499197917812
Si 12.430404433955772 9.751962021789476 7.4951013446707915
Si 11.855278997807284 10.851278211749063 9.584291089376961
Si 6.850017241529143 9.722330913240796 9.142774771515459
Si 10.057773021040033 10.14900040542663 7.6293178136653035
Si 10.17835979338266 12.339194295193023 8.595657043839203
