19
Energy = -89.28705653 eV
Si 10.263455079243622 13.784808520870111 6.611183187074452
Si 9.49038674235562 11.589474721878934 7.060539131832677
Si 8.88868222177924 9.488904870618448 7.996727588392406
Si 11.230307627282725 9.731785181188037 6.890052981029684
Si 11.860716230575493 12.183236857205435 7.3458769674991755
Si 10.087906964454993 13.343234400984441 9.031078233173375
Si 9.223085388085153 11.196908782129928 9.70943607284323
Si 13.116802621538621 10.520722710186941 8.488681481137641
Si 10.98345914208697 9.55828773037548 9.367074970171611
Si 11.675084285873194 11.802307140813197 9.988657086585341
Si 10.931852787428527 8.784896962466194 11.63770066167239
Si 11.550406227374216 11.136381566204845 12.325387391804885
Si 12.863443327905355 9.208518179305607 13.052967866396042
Si 9.158063639448645 10.538245642404563 12.05463677175954
Si 8.774611419062323 8.18630416929195 12.5833841301764
Si 10.837445477400173 8.049578162744583 14.054213480068528
Si 9.86432040078151 12.070949347257432 13.788100981485288
Si 11.457675386086388 10.37462271505704 14.80306695746267
Si 9.065190849926266 9.773728157705872 14.534129878123696
