14
Energy = -64.89926849 eV
Si 11.785701576072011 10.985140842276033 11.042320818941807
Si 7.1983004419250936 11.384570191056513 11.125336587559637
Si 9.504571573520387 11.92622042705996 11.283719312761615
Si 8.776823663844935 7.267458696549827 11.137351122760768
Si 8.302089573973234 11.921361167579493 9.07516395055655
Si 10.512547099111991 12.749849876979757 9.24853705332676
Si 10.478356411664757 10.296399561971779 8.89553654920898
Si 10.568284303519512 8.944037149888262 11.07342980963675
Si 8.295490835919237 9.446615401637997 10.181601418588418
Si 8.369611770181068 7.323935262843736 8.627609308915078
Si 10.618175946085886 6.859467373341983 9.553851261176979
Si 8.426144285542277 9.651006755711483 7.73480428232519
Si 10.467924906234519 8.157499080592162 7.3940984433987795
Si 12.233319552404964 8.623780272880722 9.16398202084296
