11
Energy = -48.41336978 eV
Si 11.512058823239292 8.119344711908516 6.838882125335504
Si 12.430500238465074 9.74514904945418 8.581779357918716
Si 10.323521940637251 9.999261302480637 7.452224570531851
Si 10.740089588191006 10.094092683263101 10.146835888565109
Si 9.248175510645899 7.691972413905149 7.633160964349455
Si 9.09177936750061 8.409068844109623 9.872683011649157
Si 9.739778626760595 10.150853227730336 12.305533787155696
Si 7.995023579566425 9.851986285058423 7.889800355132186
Si 7.801132003278414 8.809265909371664 11.79204450545312
Si 8.27480827427817 10.80598687815392 10.147721661253719
Si 7.466718757715863 11.140968549176181 12.285339366405086
