13
Energy = -59.50222382 eV
Si 10.92522925781963 10.856396747326057 7.069749998891628
Si 8.529680899974533 7.854186125685721 7.5180647914429475
Si 9.792928853656223 12.009949038876737 9.001998363762477
Si 10.743401060206429 8.626247732473296 7.947383306248601
Si 11.69438977334286 10.551767336435999 9.450797501360045
Si 8.642551568376172 10.231569875130807 7.467490128443897
Si 9.039298564051203 7.083979793340713 10.178253945734202
Si 7.462019818108721 11.096567226055793 9.332686094552272
Si 7.162557734211212 6.4648567803371115 8.852118922650574
Si 9.384637531180584 9.870402608084616 10.451949663723724
Si 6.957618605631962 8.667481925770952 9.73003300498175
Si 11.291130368034706 8.186814380127764 10.210331200290442
Si 8.028710675319205 8.447585551122271 11.824010607740739
