17
Energy = -77.92334541 eV
Si 16.712301942614086 9.842415280658281 12.151714610008437
Si 16.25866449926399 12.1947552760161 12.213714053634261
Si 14.92338860168774 10.486600745160915 13.631235908631693
Si 14.80454721242689 10.574005685452654 10.935958453252745
Si 12.735360390844072 9.973085186998267 12.454497825242168
Si 14.91488103445741 12.943841010528802 10.343177867023819
Si 13.811511201101945 12.337092899413912 12.54315077256691
Si 13.227780346714122 14.341307386924866 11.493428226985767
Si 11.180407721301421 13.160274893711376 11.41177031629967
Si 10.731366637154585 11.24744514597703 13.24422735057497
Si 11.07668983566549 10.80340961957111 10.788136708947873
Si 10.290258477859012 13.666197642085367 13.572166197794092
Si 9.045978197692564 14.223421482268977 11.236011697249586
Si 9.0877696165528 9.971173683907383 11.952791066539904
Si 7.908701882280511 14.228417535870589 13.4745156620087
Si 8.993167173894438 11.950084544088574 10.145331951992977
Si 8.404306227603819 12.190035334214262 12.57887127260741
