12
Energy = -54.46583854 eV
Si 10.447828389085604 7.712180000243066 6.662057337216656
Si 11.362160896923307 8.737647276257347 8.63257063491967
Si 10.324013829630443 7.861116634273018 10.659099114143345
Si 9.239347629761978 9.795301739159429 7.308262214769066
Si 7.786919114133569 8.011494865244643 6.632401974551437
Si 10.526950788305932 10.469687146799993 10.129964706638727
Si 8.650091111425095 11.616082354883712 11.30670146799765
Si 10.078589069345535 9.589782185980605 12.312032061095199
Si 7.060987555921433 9.069755756546758 8.66601141252172
Si 9.118687303055603 7.295147134861998 8.613925297712086
Si 8.181640429872902 11.21055044117594 8.983726006942282
Si 8.053718878324363 9.332941451118586 10.876374164720321
