19
Energy = -88.84157667 eV
Si 9.384382530550138 10.341798092596841 7.740841106483002
Si 9.176378806324104 12.701296478542341 7.912160093872274
Si 8.617211202653591 9.078825130987152 10.021220717062516
Si 9.613142071615982 7.9529790826282785 8.154391323790174
Si 13.892825919238794 9.861848409094815 7.982467662619343
Si 11.562370547518093 9.66449030056184 8.464203102512803
Si 10.889742272950963 11.886439362743156 9.406921234445168
Si 13.304633148484132 11.522019512234534 9.629342713676035
Si 8.296383822039315 11.463429417237444 9.789122621120711
Si 9.936890420696688 8.481369469337473 12.075141647738494
Si 13.418059527860942 9.02890915090025 10.18293876135425
Si 11.28203626080323 7.796863874341273 10.074638727043006
Si 11.169165469281044 10.436150305006016 11.439097355129094
Si 6.394452002797129 10.041076784486673 10.44875292944491
Si 13.509121688089856 10.703544895506049 11.860176706279516
Si 7.608677109624258 9.063585266990001 12.426397215428935
Si 7.495272962337253 11.59070209774399 12.12682810033114
Si 9.736611437455348 12.504456459600663 11.66209262147229
Si 9.44719500587556 10.614768115657785 13.33781756639276
