15
Energy = -70.01822556 eV
Si 9.667699539598729 8.979229895554075 5.903976699019528
Si 7.4815432957681205 7.725963836360793 6.309315630608975
Si 9.638219375246118 6.765783347183229 6.8849643188446095
Si 11.537219630873711 7.994883941361379 7.590032515702028
Si 7.964210099037207 9.868081864608516 7.500743671536316
Si 7.876650422765622 5.849263446749541 8.182483247257988
Si 10.072767077492882 6.656444883582041 9.320153795589562
Si 8.753077972947562 11.746280128353952 8.971515747377074
Si 6.456067204569081 10.696451043525597 9.297378362374168
Si 8.158922803367794 10.548964991610896 11.00760981257924
Si 9.936362041165745 9.261716333123344 8.767439502186177
Si 10.50295058849264 10.599600524195155 10.639397598728149
Si 7.768636423972226 8.043910486076049 9.07701541038057
Si 6.689798477529513 8.687531273092953 11.081844636609
Si 9.289683143475635 8.36970210092511 11.259937147509397
