15
Energy = -67.9742249 eV
Si 9.435062249022042 8.065449563128134 7.483707267026194
Si 9.944395433356945 10.043522421560263 6.27375598778127
Si 9.655387502274433 10.449757364931347 8.691224020969102
Si 7.801728872628762 6.648323137634127 8.469975915283012
Si 11.783784707598057 8.401199935241781 7.3065254883769315
Si 11.964495989941762 10.847726101745511 7.445815267514544
Si 7.769117118082803 8.763104761543753 9.520931978033865
Si 10.81695244268502 8.472963032716063 9.638846887269965
Si 9.166843628567987 7.06897815187642 10.57091981786876
Si 9.968185799490954 11.822275496765053 10.873452814790511
Si 11.81910577453183 10.565714106725174 9.905148017762084
Si 9.589228080636877 12.23436930882261 13.148350727833462
Si 7.6322716594111615 11.176495439250258 9.982219776108362
Si 7.567916491402734 8.299913184717784 11.869940479071804
Si 8.446602969909494 10.501286712882244 12.180264273850689
