10
Energy = -45.98314686 eV
Si 9.71981426073429 9.352919337007778 6.19417855277956
Si 7.6539021253894575 9.10584869782322 7.280824983751608
Si 8.001886713912352 6.673119808336361 7.488018489835947
Si 10.04683647214406 7.969849974465498 8.050206266297591
Si 9.444128783280622 10.562743984866552 8.296850204634094
Si 5.935169965358095 8.25854492996189 8.625227344375748
Si 7.404441288480808 10.139610538155244 9.6608832593854
Si 7.883753385215746 7.609739440740614 9.759835645240432
Si 10.087984242252796 6.873600245741227 10.111795263971425
Si 9.651875029067766 9.283815308737365 10.3619722555637
