16
Energy = -73.44176722 eV
Si 10.618566417073021 10.78384965316089 10.178711232407409
Si 8.19669877879477 11.455780636428939 10.114069209184704
Si 9.159564077205147 10.91310931239422 7.890406591497883
Si 11.194312431411529 11.59256377589264 12.433990939004756
Si 6.8903000430457295 11.632443330872304 7.636020788465611
Si 13.598211510298672 11.81461665735776 12.679154239679432
Si 12.963472705682483 10.13736862726365 11.150883302080539
Si 11.318148042722893 9.847444109779387 7.966737180448148
Si 11.02272447501613 9.085025227768048 12.245977833863284
Si 9.282231595703914 8.450842524184823 7.524399248967112
Si 7.35761353069528 9.458295233125762 8.929799920868385
Si 10.654798794883707 8.26754134162597 9.787742843551854
Si 8.781138351740697 9.239597730479893 11.167243476728991
Si 7.327330685353501 9.514338004465666 6.5114991505277455
Si 12.63951589456786 9.848196200229001 13.678650974573872
Si 8.352349874259824 7.351320240384717 9.609880033893912
