13
Energy = -60.10305426 eV
Si 10.289212524282728 7.588082086481158 6.490079755352252
Si 6.749042161503507 9.60379909274824 7.27537401666415
Si 8.224323578481583 11.531878528134836 7.146686302984203
Si 9.414369242987709 9.523900693796055 7.593870617016349
Si 7.950373588299268 7.529487418427319 7.045072312941671
Si 10.137831443032098 5.957871847383384 8.450475714835239
Si 7.601762952443443 5.790787962526119 8.665958304899153
Si 7.665155827122145 10.74460860796369 9.348001427456827
Si 11.10153403653563 8.188892846776284 8.83510753657251
Si 7.176218058504998 8.024957468243858 9.402011643390232
Si 5.4971640626916285 9.709030938942997 9.360884114847865
Si 9.315978052465065 9.15825077086629 10.078205252679226
Si 9.057078554271282 6.828495820331426 10.488317082981398
