19
Energy = -88.97597207 eV
Si 8.196816526091013 10.192635003278484 7.850410754086891
Si 7.702126738289928 12.562862315534563 8.50092344491115
Si 9.88192182035248 11.414918432768166 9.054223014333246
Si 6.489019278212359 10.611481907268834 9.646950781797477
Si 14.36218962554004 10.555187091448913 8.857590022206473
Si 12.085889511656891 10.596119330641294 9.431501082469602
Si 8.700355742340589 9.534896383042565 10.193019914187989
Si 13.518609692713458 8.607273876461099 10.080013947192471
Si 11.371714655971859 8.22534249828115 8.978627598155187
Si 13.932744412450978 10.985016652728413 11.151225397409505
Si 9.367551447857515 13.53661435479955 10.12644850975033
Si 7.274450173792358 10.398361587150752 12.018598021666127
Si 9.329631754857742 11.54972795984097 11.535804146618082
Si 9.586013980322324 7.300803973374255 10.418782426931639
Si 11.092419520789129 8.598623562731241 11.525956133289945
Si 7.1460690694770665 12.690766086203364 10.98617635528686
Si 11.605539401219108 10.920817812454938 11.950353366810585
Si 13.233192279440237 8.867978021238038 12.530257876548163
Si 13.418862668236644 11.145691450365272 13.45825550596103
