17
Energy = -79.11190522 eV
Si 8.887722599925052 9.478050384446513 12.243475257009178
Si 11.040412214745366 8.533546656341947 13.204329325381657
Si 11.739667236321846 6.599959964290468 12.057291605893385
Si 10.503144174309641 8.182700440844057 10.77277783677481
Si 10.421181691803103 10.631014035349914 14.089782083576488
Si 12.984625443454096 8.660054113481213 11.547807924044232
Si 13.599818121184825 12.688522633170356 11.353487533243351
Si 10.351964533321546 11.43565096819848 11.78666045065404
Si 9.52283701460758 10.131207665568954 9.850193777245625
Si 12.523943198566657 10.753001025323421 12.737387036537292
Si 11.949562249275402 10.370513897921947 10.245809629886365
Si 13.484445767129683 11.79276775064171 9.07104958324796
Si 11.907945920123213 13.45811553349896 9.465411402659138
Si 10.210887121771762 13.727291197090251 11.357938292791664
Si 12.466012556043168 14.865016736910759 11.302678871854514
Si 10.365683225833108 15.220293990404718 9.48417309829352
Si 10.491928489148835 15.970673491728943 11.919492572365998
