19
Energy = -87.48220758 eV
Si 11.312227364534046 9.923065327333552 7.62117531109475
Si 10.737664365933256 8.131629279985425 6.058866130116263
Si 10.045111957316958 12.132727609081002 7.8003929160281915
Si 10.835989853348801 6.313966130157154 7.771807887610152
Si 12.801102443769967 7.723451310654719 7.462498847794265
Si 10.241451690275735 11.604082603454078 10.113690643485432
Si 13.13998539839926 9.361905752365036 9.22659905576858
Si 8.312894946137106 10.621757241291565 8.408611982403752
Si 9.355462386820047 8.47424426976006 7.981987926338891
Si 12.25092659398575 7.102726903618121 9.870569713512522
Si 9.759426710387794 6.9367164350992425 9.918826714738126
Si 6.3985081194882545 10.01026461849572 9.694192315258892
Si 8.007917071524664 11.309126497653446 11.055280761676693
Si 9.41393805335358 13.07504035833421 11.849331380274267
Si 10.840659246193114 9.219727135094969 9.926084556068178
Si 8.365180671573931 8.889355703221739 10.620450264957425
Si 5.803837603929781 11.001564232944444 11.949587912612175
Si 7.91305657365464 11.954290250542606 13.414510138136553
Si 7.655046474923324 9.607346805031714 12.77778735163256
