15
Energy = -70.02126454 eV
Si 8.499148767154239 9.020283858707593 6.423401762403699
Si 10.480866467415021 10.355202134917324 6.864374593147515
Si 8.484229167125623 11.55339113987373 7.3190648604718715
Si 10.738921351840403 7.94868100074647 7.012111143509928
Si 8.772626131784836 7.687533083252879 8.519013482763967
Si 10.479562793195361 11.546684907352013 9.032523606419367
Si 12.237293692341078 9.740300388452356 8.334158104204674
Si 8.285257907802668 9.989656659899028 9.08075836118918
Si 10.472752927424594 8.9410545211298 9.696914483160567
Si 6.8423971866727795 7.793400163830883 10.107436863018673
Si 9.03194036732733 6.668041500606309 10.77614804290731
Si 6.881748311869674 10.345030857868958 10.948283562138
Si 9.432653549408577 10.741670120113502 11.403695396730527
Si 10.587515860462377 8.472251930256974 12.016793100640013
Si 8.22352055494784 8.64725276976511 11.915757674067232
