12
Energy = -54.45601513 eV
Si 8.134088158623562 9.262346398568846 11.35005493911569
Si 10.532320091590433 9.262246036083788 10.767416706291547
Si 7.085735489531874 8.027646159130683 9.320326394646598
Si 7.086288222373112 10.498138648060772 9.320899785999142
Si 9.187681681888286 11.435973359265072 10.383320139332683
Si 12.611028048878767 9.262198011860752 9.23999759060973
Si 10.649004774291345 10.487382135717219 8.61836714103807
Si 10.64900967416427 8.037984176305574 8.617853618445935
Si 8.619298715212997 9.2632835588394 7.728871700871679
Si 8.704808907804878 6.8743875936705106 7.710580680271493
Si 8.70553200503823 11.651351778266912 7.711723538971592
Si 9.18695958668383 7.088817500311789 10.382343120487297
