13
Energy = -58.48119708 eV
Si 10.805979346796418 7.602088795825042 11.017473048328057
Si 10.526506966275727 8.117963774517001 8.430964437765013
Si 11.066965123431782 10.376315006762992 7.483229285495557
Si 11.13726297882415 9.841256034663799 10.149458698628782
Si 12.844959603361497 11.026293273449488 9.064838396777684
Si 8.929042825745215 7.542728039610002 12.40862546094972
Si 8.808856003834435 9.6444827038028 8.757777639117396
Si 10.877315361275317 12.252111385099886 9.344859381833595
Si 8.884360212871988 11.098762401592532 10.616399755984133
Si 9.4781807113781 8.791381927211873 14.334384244336828
Si 9.939524200144083 9.7416910047006 12.303973646149949
Si 9.027795474801094 11.700792936701802 7.6340547517861586
Si 8.791803132024743 13.270310104089546 9.548211622025564
