13
Energy = -59.96973436 eV
Si 9.809207925020223 9.520122436113814 11.77346993913716
Si 9.636449671747096 7.005155595047559 8.519727366082616
Si 12.10540080559795 9.540469165315665 10.805775519257297
Si 10.571058652827276 7.340352322525115 10.834992995335655
Si 8.573356949405813 8.783458195734697 9.770827320104988
Si 7.807916813603471 10.996039500634202 11.386884096160452
Si 11.926630250662399 7.985101821676437 8.89705865389441
Si 6.410487595833046 10.30659838073986 9.57647143333698
Si 10.01694531532697 9.310124396911664 7.732534425837855
Si 8.11241604084625 10.691427860271473 7.983216367155997
Si 8.000217693907175 12.477279142536315 9.524237126661534
Si 10.084122573896128 10.889002858938174 9.73994851610328
Si 12.084864419664823 10.44531182622397 8.446795506982946
