17
Energy = -78.31149223 eV
Si 11.85661319974557 9.3319415094681 7.468868044554925
Si 11.969683300446475 11.63290657829883 8.942517408160487
Si 12.903421659898266 7.589533124133519 8.737448873348912
Si 9.933169553278182 10.276193905607242 9.115499873453432
Si 10.511266636490282 7.6599567415056375 8.897730440658771
Si 9.495132940578598 8.992164959441276 7.1744606851773005
Si 13.476453463647742 11.271075711097732 10.974330514441844
Si 9.755345608908797 12.401377822776542 10.390454784610398
Si 12.247804155397827 9.435102163965988 10.075234867435569
Si 10.216836083700239 8.66065440924179 11.261601890078317
Si 11.698758555376234 12.843722856048046 11.563363302509037
Si 10.338356162862505 11.215098173298866 12.553938414784858
Si 8.381638099771065 10.31150190829558 11.124191396304306
Si 12.090927475904254 9.588024169782658 12.559416002647989
Si 7.467565227517142 12.841147357923315 10.878366213723423
Si 8.085449833733534 11.871193477006209 13.054510650762465
Si 6.263394575125239 10.769868368537809 11.725042034258768
