16
Energy = -74.60163473 eV
Si 10.88071154390528 10.214989962527458 8.213372366469542
Si 10.18088300636427 7.9499992543499065 11.907702739313374
Si 13.673623325248851 12.228585534639418 9.944759856891594
Si 6.569882407719807 8.91910870267773 9.097611048883813
Si 8.604850359237629 10.215492436049974 8.762826177938695
Si 6.2430545523619605 10.215418265731532 11.166516843200947
Si 11.317976414982454 8.588605095646265 9.901561359929763
Si 11.317816375696033 11.841843795930581 9.901257425321875
Si 8.375550762182762 9.018193337301836 10.842217006634943
Si 8.375503203256988 11.412729828368345 10.842288083999234
Si 6.569909426534962 11.51188484375086 9.097689841108792
Si 13.67389283815988 8.202501179944042 9.9449903413641
Si 10.952705419413903 10.21542948344037 12.00561785551694
Si 10.181008948332206 12.480869810537602 11.907475910105441
Si 13.207912604921217 10.21559880025193 11.190401371426521
Si 13.321425098067078 10.21545595523743 8.720418058279556
