18
Energy = -82.79725378 eV
Si 11.858437115799404 14.974309239873516 13.978052769515136
Si 12.529078281239308 15.330922060104069 11.573181804594613
Si 10.691339542404162 16.47128412232984 12.594916343729983
Si 14.045755719886685 14.30468156064482 13.193135710044038
Si 12.26812871349101 12.92309236963931 11.67422126243148
Si 13.436504879622213 11.939350237365646 13.486643141518364
Si 10.194722544011988 14.127399818156858 12.219097822372122
Si 14.251903185106974 10.541515735206596 11.701500950541403
Si 11.038001027644626 12.334021659861465 13.717814793931897
Si 10.42504668208459 10.507602573220188 12.108604608795433
Si 11.246516336888883 10.46480128546119 8.218049392617356
Si 12.421826042323396 9.070747837080791 11.982669797213665
Si 12.171906337028647 10.93417667391737 10.338675247029903
Si 8.400922269853442 9.419315140043336 11.685296977641903
Si 10.322622545110262 7.912782492648725 11.552307663001091
Si 12.120771456479533 8.389323815788153 9.648660816088393
Si 10.480453210976187 8.110485326580823 8.051796040042609
Si 9.57609978980398 9.670065688092766 9.677102996403171
