12
Energy = -54.6097628 eV
Si 8.688740727131067 8.601835070164986 6.348422994822897
Si 7.621773497662558 6.254849248122406 6.481819970314745
Si 7.1085916560995 10.41998852412198 6.885208248211645
Si 5.91272096573757 8.356407313569783 6.567237184709403
Si 9.213967652051837 6.845430502116954 8.051453202528204
Si 10.470753903942645 8.978128614426119 7.980163962770588
Si 8.05575229134318 9.377686111623843 8.82583524879037
Si 6.840152442349696 6.998178019848325 8.827689693594717
Si 5.6664802905711635 9.168923493636012 8.818319586784453
Si 11.039803067801932 7.316421636736124 9.71785060439867
Si 9.98009379111541 9.534312273790356 10.362670345181321
Si 8.666795854693994 7.413465332343947 10.398955098393543
