16
Energy = -73.26656116 eV
Si 12.491873331837263 8.889265607173432 10.653358546116928
Si 10.258835170942376 9.949434077340186 6.636290532528915
Si 10.466417552070594 11.297893833812418 8.756795209096435
Si 11.334170732870172 9.008895053477703 8.599546145480526
Si 8.459554068494914 11.487500026606268 7.403257555379446
Si 9.556212875705874 7.408804532969472 7.988039866353835
Si 7.863414394660693 9.170224502285938 7.652602920566148
Si 10.250820773656812 9.898515392879888 10.745345220069536
Si 7.882181879995874 7.249450136773357 6.15986985081105
Si 8.911643907176584 6.046189891565939 10.01027309753546
Si 7.421267708788763 5.7644335460166305 8.075983320826426
Si 8.265521201489985 11.195633827215573 10.00602884642131
Si 8.551986957432606 8.44409923397386 9.945951529159188
Si 5.86538470502557 7.681342672060364 7.671372097847201
Si 6.5779943231237334 6.937096159542769 10.12585196149537
Si 6.218480649850209 9.287646905425692 9.557541936910662
