14
Energy = -63.80676363 eV
Si 11.604734941571403 12.594595255385704 14.189390973003547
Si 9.43848718327169 11.514416095929798 14.410599701802242
Si 10.314737703280619 13.001282955001098 15.971080022685031
Si 10.749119681685285 12.802811194471362 10.570604290244209
Si 12.708490223850012 12.585832114087626 11.932283178458395
Si 10.729099392040636 11.038927447074233 12.445919939606902
Si 12.965547706389675 10.442645368546696 10.743265291986775
Si 12.617161117556838 12.145580741075054 8.966979264200578
Si 10.305424469229735 11.083178659502215 8.74879513600991
Si 11.770282739140862 11.059897713022853 6.921079617098788
Si 8.925771307760686 11.067070054825729 10.684095197203415
Si 12.023457606400372 9.014219466012921 12.348356200828944
Si 12.257013793525953 9.470651603054124 8.631817285425788
Si 10.627935641373327 9.216030153848488 10.462968304034193
