11
Energy = -49.38178782 eV
Si 11.61174311737675 10.03319184550478 9.272764498838052
Si 11.502701966039771 11.127826420430587 11.295229513222104
Si 11.07444985912119 9.73935409064255 7.038398985344536
Si 9.832557127940218 9.5430781518244 11.109123945824168
Si 10.369970016017907 7.976683556419275 8.553030730905439
Si 9.58309979244465 11.735588565736245 9.737647112103978
Si 8.85962263882347 9.99301599297823 8.008677339514916
Si 8.143890853914561 7.706484401971325 7.628344221439819
Si 7.885899816656676 8.691862946681866 12.03185286092211
Si 8.27447731991569 7.825027261466625 9.933819495689951
Si 7.579337489037856 10.409798940079677 10.17549520304095
