12
Energy = -53.41324394 eV
Si 9.207101703417882 5.675234262475749 10.962630870941142
Si 10.591908962386725 7.520399627971081 9.92582559971368
Si 8.748257356105324 8.163340683592013 11.123322732688017
Si 8.332601787397712 6.740865625868225 9.110310383231116
Si 10.290651652447531 8.231675999308285 7.752244192091782
Si 8.464721802321195 7.108054903642106 6.688786345506667
Si 6.384925483793371 7.817608986822826 8.105229715265637
Si 10.065147188310766 10.526490703262267 7.648559496667226
Si 7.1689579356465725 9.274086781771798 9.843654389128973
Si 7.857537768474163 9.46057323499566 7.051153492429652
Si 8.164362939256254 11.655969531291614 6.426399476600385
Si 8.235652283187187 11.10080610249766 8.896237676070191
