19
Energy = -88.78471544 eV
Si 11.985972891338958 11.341919083181233 7.35839989729399
Si 11.729794178445497 8.93945607657925 8.143281616867808
Si 13.170931369363192 12.706045913129767 9.194995191414716
Si 7.98896953208766 9.896729014332982 8.930575595683491
Si 13.673356066482173 10.246006444218215 8.937124087992675
Si 9.724491377484583 8.287948377388748 9.555617406880025
Si 15.253421084347714 11.853030351173373 9.836243713341268
Si 10.888428568777462 13.218028759835114 8.7417280711887
Si 10.160760809348345 10.81336391622897 9.008914168028173
Si 11.80340756461282 9.634879383776356 10.651186153013182
Si 7.855541017190916 10.518860427323201 11.231617119569794
Si 11.246521764205779 12.064328944938874 10.87802872779754
Si 13.483614067152189 11.259642681855146 11.401764598676282
Si 10.826690068634734 7.733640564915061 11.66434942105715
Si 9.34932642592343 9.280038418400085 12.666206226982982
Si 9.548667225649726 11.616545195825696 12.433755667487473
Si 7.286759973325518 12.071020154160687 13.243319797165626
Si 7.005899984179482 9.617740656146093 13.346056753441944
Si 8.868896483048266 10.752226088190646 14.628286237716074
