18
Energy = -82.40744156 eV
Si 11.7674358235428 7.410936695873632 10.905191348286452
Si 13.796696264731148 6.3967349913428935 11.070377784690752
Si 10.265315437240783 8.57176368731641 12.405064936466797
Si 9.582514073963798 7.8506308119681325 9.892630722993012
Si 11.67418468368945 10.428591941359997 12.04722244553765
Si 13.688498526319144 8.201566875615285 9.539435765165148
Si 11.564406145136383 8.741499646320971 8.669477112789375
Si 9.052758655415785 13.33553329997749 13.411610612368563
Si 9.892764299540373 10.158370989110784 10.417960843358271
Si 11.241026696873426 11.138078279465367 8.697324557508209
Si 11.491475672612992 12.58603363777512 13.074309938382527
Si 13.187625086727225 10.41635169861855 10.196955975821067
Si 11.889469428062425 12.937889551824751 10.794726706599377
Si 8.62101932147943 15.487536217734402 12.43278927003402
Si 13.24825009800644 12.47509339443757 8.969705094529964
Si 8.765361937582135 11.926212978338807 11.506824000699595
Si 9.820651691847539 14.084809064557476 10.989787644230008
Si 7.3884653140611505 13.74886100461558 11.251102659399361
