18
Energy = -82.28706957 eV
Si 10.366736000141229 15.556488186266193 10.283238316422718
Si 12.131612405771744 15.528328327098368 11.918028142783898
Si 14.061685717174116 14.850554745552634 10.736890706249792
Si 12.00025658519174 13.845524960183091 10.02402994019819
Si 9.90512718797656 14.178741827147569 12.166202211469285
Si 12.095588133538545 12.867212065778766 13.372876635551682
Si 11.898080533489454 11.654722110869201 10.989706798001558
Si 14.05828570989899 12.79864280787244 11.999499194831042
Si 10.076425046596873 11.885744065322385 12.684934725241504
Si 11.12939306745323 14.957420910922345 14.033174748267
Si 14.196576420081488 10.88275381484441 10.407754562907922
Si 13.11121754087178 9.941907959750557 12.540778604745682
Si 15.221224465578278 10.876432153895433 12.86246243549486
Si 14.996991432161852 8.914714931722896 11.41558204815157
Si 10.07611817276958 10.01453589505545 10.681134941506022
Si 9.05368832497046 9.8327479405017 12.853610815863533
Si 10.02979925946171 8.286501256018912 14.304421584801847
Si 11.171830012231435 8.622732046136425 12.309150324216773
