17
Energy = -76.69170973 eV
Si 14.627290134220134 9.099948648746972 9.41811297396818
Si 13.472650268774863 9.3358156605547 7.315001376471977
Si 12.871708127563533 8.99762228855345 11.23284951219238
Si 13.085981682263094 10.877133956739224 9.588634427489808
Si 11.499509547162182 10.68446046397097 7.9176979255050375
Si 12.019334393413445 8.568204850328957 9.088999095472337
Si 12.542076675620406 13.074805940045144 11.030628011319846
Si 11.844280449112693 12.76594710025653 13.24986908099279
Si 11.336457917941802 10.807500234122815 11.841513269635193
Si 9.228697430447312 10.967176017408205 8.118453070905224
Si 9.46935071973185 12.416613730594795 12.979284362412725
Si 9.861737627550715 11.7989612237847 10.223352086392277
Si 10.346977827725441 13.960431939320804 11.258659988663265
Si 7.907368947722073 11.030936816699626 11.49590998111146
Si 7.422335813718933 9.06944802852192 12.535278195140174
Si 9.496987059587962 9.836132027782828 13.245435204955706
Si 7.660225245057414 11.365744513054352 13.988541639711261
