11
Energy = -50.68003656 eV
Si 10.1573403177343 8.297849166846374 11.566085454345348
Si 10.063420336303727 10.586355148362527 10.691336644610157
Si 11.974772391006262 11.051438856155073 9.412523346063194
Si 11.50340535198455 8.587068395131526 9.423683179313613
Si 10.062606806651115 10.576051627165494 8.138765340733851
Si 6.134717119349112 9.81313483974284 9.419158118146102
Si 8.130025804079267 11.29191392858605 9.412731894781503
Si 8.017463047627382 8.938426796813035 8.208761836360384
Si 8.01800005687996 8.948468987410491 10.635285398110655
Si 9.401496709570829 7.24910878627108 9.428750955444665
Si 10.157056052927354 8.280487461629502 7.283221826204652
