17
Energy = -76.80515064 eV
Si 11.67853960288179 8.628324729068483 13.434099413357572
Si 13.493762994515684 9.980193947954499 12.724027136748601
Si 9.601892853972354 9.150699624131295 12.465683699671375
Si 11.861901621425917 9.39239106775652 11.168337191463005
Si 7.678733912478439 11.545498664939865 10.05839728692388
Si 7.845438616844908 12.366194723629233 7.798772314718793
Si 10.27073523062464 9.932380136479367 7.83500925964278
Si 6.0460421912994144 10.76190280622229 8.19628959678928
Si 9.673289132445548 10.091105765802519 10.167381136266249
Si 9.496373028921557 11.55688449495559 6.266454361208323
Si 11.083445986422701 7.928945166822601 9.44928651438547
Si 11.101314979973298 7.805206209675789 7.070451626824807
Si 9.14806175740997 7.583182418089407 10.69099895970615
Si 7.440935288701091 9.08416919455926 9.387296723187758
Si 7.861275876381456 9.870612195521558 6.8572535218088
Si 7.375438125599098 6.7652390999702225 9.278585977803322
Si 8.74302343848669 7.776674423603723 7.5609952029557315
