19
Energy = -88.7888514 eV
Si 12.397528743564736 9.870602635935365 6.6335528970454165
Si 10.468958824478086 11.108997958549278 7.17684269524936
Si 12.748022796061807 11.918681455479001 7.94899426277234
Si 10.861010842111579 13.157186295576073 8.731044101707544
Si 11.435838563772977 9.344351404414377 8.79028578479953
Si 8.7141062834442 12.518769477407984 7.824951014477931
Si 9.301944146695199 10.677548711630367 9.302796687339121
Si 9.962299914802124 7.81079263866251 9.955352986847158
Si 7.703912930813524 9.095472199575308 10.131023034902881
Si 12.673851784480155 9.754121755637245 10.797414371311815
Si 12.702605277708008 12.040562766262193 10.292256649229712
Si 10.529305111228956 11.18230146041526 11.216287151192791
Si 6.814563538014564 9.809394080246461 12.218700267028957
Si 10.954493829537924 8.551303922462766 11.935265079170964
Si 11.130935433633464 13.583369043009078 11.115726676571036
Si 7.884774882136525 6.712374438412401 10.160168576313986
Si 9.086886631585674 10.1939404881237 12.886429890997048
Si 8.165262086346937 7.850893664461646 12.311824754630885
Si 9.88645872040983 8.2420959445654 13.993843459237647
