14
Energy = -64.86171207 eV
Si 7.5749419884773275 10.246704323634862 5.546777400860067
Si 6.313016070358275 8.600567663624878 6.7505828508287395
Si 11.203300370351176 8.369196424230248 7.511851183309645
Si 8.338991113719999 6.821858154941921 7.585997359780637
Si 8.993029231342863 9.175907141200026 7.119121863724002
Si 5.300420094796845 9.410778758065781 8.745177882671317
Si 6.896802792284991 10.87164778952613 7.7612224119428
Si 9.33162510630668 10.474667795573623 9.205210983882495
Si 10.470332133680992 6.551789867153359 8.845599278210704
Si 11.094896084418691 8.828411200538852 9.842559463249229
Si 7.538350024770489 8.66085637998098 9.16123521023052
Si 8.201891091380952 6.521700912525894 10.024563167782079
Si 8.88852592633925 8.997689965146215 11.118337716635926
Si 10.34341741642378 6.957763068509983 11.271302671544577
