18
Energy = -83.32821149 eV
Si 11.906122300267146 10.296412177676434 13.733614334441238
Si 12.64576729347638 9.147013290307987 11.542455189508571
Si 12.668188291503158 11.584399617720655 11.626966356713167
Si 11.506911701577096 11.112668402292085 9.421607284577904
Si 9.635615228771634 11.030393542261827 14.340669288869666
Si 11.800863408160799 7.857515960816991 13.364892952603926
Si 11.216419158633515 10.754293646092034 6.90592502439517
Si 10.300617634445304 11.687227518498375 12.213848342948667
Si 11.023935765610096 8.8205756408101 8.642028896289686
Si 10.736960362052825 12.916142435224655 8.077808157015475
Si 9.705549253854345 9.083204296537433 13.00573630302252
Si 10.986496747903773 7.605859550460159 10.77082951635081
Si 9.137504450650939 9.048983926193376 7.090247177608794
Si 9.299086996924435 12.01355839954258 10.007203666888596
Si 8.904972433917107 11.452505368537462 7.174827114404329
Si 9.594885445734002 9.58015120414688 10.57930286915809
Si 7.278594737019697 12.266865226985695 8.752449688915934
Si 7.89505223833971 9.958938569165255 8.97748882662528
