15
Energy = -69.23175524 eV
Si 6.429941209776853 9.468243474384627 9.402104081774894
Si 7.789665034992557 10.29079077316806 11.007172917832344
Si 8.556009947158108 11.92844580239716 12.501037232400533
Si 9.396773279667626 12.410070279392324 10.25941593658958
Si 8.66673826291032 8.44315740174655 9.409370392014232
Si 8.087703491729664 11.104537187071271 8.556857977707319
Si 10.620165303236336 10.933104163002884 12.118584115907458
Si 10.432548014407931 8.871159697432342 10.94113382834329
Si 12.801174539523721 12.0125596215562 12.198135585131137
Si 11.832424286824896 11.865790554501496 9.997188311212888
Si 10.268015585211913 10.186296539297523 8.713645625752305
Si 12.854953256380035 9.748074279100752 11.679426249589083
Si 12.428850239530611 7.5080522290211205 10.96228409700627
Si 12.30078245547409 10.965757437144115 7.806819984714064
Si 12.535681063680787 9.161877427181938 9.306131955582543
