11
Energy = -49.43409664 eV
Si 10.25085509375951 11.212686301769821 9.038754130596093
Si 11.060867455148164 9.532374957009866 7.539120878559212
Si 12.087216413137343 11.801073106200816 10.555386042933032
Si 12.193003719567114 9.55605157049579 9.67921142729492
Si 8.149270518557536 11.30752689355931 10.295923778352746
Si 8.97012101695531 9.11597909296877 11.361426388268216
Si 6.629942736841757 9.509820164515034 10.836845455106197
Si 10.06342155174536 11.207930375968914 11.605030961743159
Si 10.312000822854468 8.174455648507259 9.49158595356533
Si 7.89325813115698 8.25535619552616 9.196868057646762
Si 9.290252346214386 7.460533651514116 7.447710825087057
