10
Energy = -44.37642964 eV
Si 6.847008779707558 8.361914977663538 9.185208838666284
Si 7.091182115543762 6.4048686395078045 7.79724456078605
Si 9.02067866893892 8.78968373920739 10.518283916835886
Si 7.178771770703614 10.510185066236312 10.153796677903275
Si 8.242053047121143 6.420631899302651 10.070802069435945
Si 8.594985563890598 10.0656293813473 8.349538513598636
Si 9.370460740881759 7.646961212346962 8.339035347100964
Si 9.742977037376901 9.603556884243169 6.3545634840087875
Si 9.747698481403402 7.1919760991219075 6.1212502514503635
Si 7.536878042742084 8.501425713123497 6.537276525314699
