16
Energy = -73.65864016 eV
Si 12.01484765069299 7.396976839341782 10.55822759443715
Si 12.435509459027967 9.974156193958267 10.269165052146905
Si 12.347664714935577 8.500404108405123 8.331684292003485
Si 10.183275538408198 9.157849198228767 9.338447467070832
Si 12.775373736414064 8.83408849900106 12.377129062311093
Si 10.961511954783466 11.8211796965351 9.821078066812152
Si 10.517602834494696 6.831012886372304 8.681276480447416
Si 10.371126190331845 12.750427932770855 11.965815870875426
Si 9.499760096547908 7.234547801561266 10.859746444572373
Si 9.083616865921984 10.889054938834338 12.956178101832808
Si 10.497613587430326 9.179803465998054 11.889470607919044
Si 10.393027665901151 12.747676859109704 7.7481388589443325
Si 8.126591648774873 13.795674163234741 11.679295190326071
Si 8.792955419609587 10.971066992330606 8.510408917112773
Si 8.379196470964423 11.514640646104457 10.823447978704213
Si 9.210946096647897 13.6124969929132 9.677698297266618
