13
Energy = -59.56511007 eV
Si 11.387473395219471 12.39889729097844 8.922045636901363
Si 11.951364807871757 10.04206470331122 9.166966646819294
Si 9.874042964049424 10.456951283776904 7.943573579517469
Si 8.9611234174466 12.687452729474296 8.34979576898568
Si 11.74289928507008 12.052738966746766 11.343522442567581
Si 11.452871569347211 7.640348525650746 10.077768061719304
Si 9.569321269405698 12.933326676936334 10.746245616005272
Si 9.584998273874717 9.226399394500572 9.981626321583004
Si 11.896292948582776 7.596295808172353 12.499029914198966
Si 11.561585568719742 9.688376636329052 11.607609577619865
Si 9.347127685310847 10.853604375977234 12.015050920638046
Si 7.985723684621044 11.023687364541503 9.937375777832179
Si 9.536131810796133 8.236454165168482 12.216310480354078
