18
Energy = -83.09189487 eV
Si 12.079143365586084 9.733725166360752 10.751130307353256
Si 11.972873830080587 11.339435351248369 12.576034528717281
Si 10.35229800156114 12.667315547043545 11.315112097873376
Si 12.381419074097588 12.02023176634368 10.071257499123162
Si 12.846160956792094 7.806617302009974 9.412185838908114
Si 8.213021042917086 11.43043694212569 11.44758058306483
Si 10.496073514628465 7.363227762842786 9.30412016348549
Si 11.505893753870106 9.0784905572855 7.773092229243551
Si 10.527609171154124 10.863382917256326 9.061159132196185
Si 9.673484826724142 10.280781744822162 12.867429586365846
Si 8.922056024820757 12.642286412077029 9.249545843283371
Si 9.514460725124149 8.133581749127954 7.210952900185131
Si 8.567447286796458 6.161765020383509 8.236227407182211
Si 7.978926031647261 10.080759473631467 9.17203999936025
Si 6.602165203352446 11.865774313195299 9.795980644507651
Si 9.62996549813271 9.195460726848793 10.800221084960672
Si 7.162649346058806 8.315907807749136 7.691665246286211
Si 7.862376774470445 7.672790178026847 10.025644832658422
