15
Energy = -68.05367925 eV
Si 11.121662999611958 11.831477551822816 7.325054943796119
Si 13.036162751879763 12.878925099831786 6.439313890545442
Si 12.01734121949543 10.172570976275907 8.877654384627988
Si 11.776935763874649 14.307884867534796 7.920506357497237
Si 13.286292325686539 12.320246712860412 8.744224660351543
Si 9.99987742353511 10.050586737456017 10.326606830764991
Si 11.045509779465847 12.838313603747752 9.535831753113587
Si 9.706096785699124 12.170428936912524 11.347974668309055
Si 10.308384088948255 9.442076970924946 12.563550719152849
Si 10.619573747074709 12.252959013621073 13.625605444336928
Si 10.589362780863002 8.034947680711952 14.365352022415749
Si 12.039702123765926 11.15207270192519 11.476510428313786
Si 9.336674475493542 10.383747712998757 14.571422611505717
Si 10.785387655680985 9.524113181483127 16.235658092117543
Si 11.929717726689017 10.238329899657254 14.243414840915335
