23
Energy = -107.3074722 eV
Si 7.067276221696691 7.815472838940438 10.927710995770575
Si 5.533348617753622 9.701977728287854 7.253182788013857
Si 10.67936744165561 9.814590812410392 10.665894753181759
Si 8.63155701340024 7.253768329809496 4.902899351242262
Si 9.530871969591026 5.971677092127485 9.132489897229288
Si 9.156894466442147 8.414795532855702 12.036671203367113
Si 6.696785021443963 9.656728794680975 9.388490772368712
Si 9.733154629878277 11.43278222872574 7.124135087509438
Si 10.46714592656864 8.558002915264675 4.310884685986917
Si 7.298131764165414 8.11339059592059 6.8088954571021505
Si 11.07468076014467 7.830202029705671 8.404649516920198
Si 6.987159849590963 5.736500103654233 5.624914730590101
Si 8.998400400515491 10.956050326090615 12.179698742069526
Si 6.958090287900046 11.629214565836625 10.67926107713898
Si 8.899680129543666 10.969977000625532 9.41760907821067
Si 7.295196204378671 6.215823760654227 8.098128810233806
Si 10.955655225840854 6.970389269234383 6.072510637857416
Si 7.431950090313434 5.430538001424586 10.32782198469959
Si 8.959316972608951 8.46286888330098 9.545032831234762
Si 9.253493175281607 5.417802047710493 6.776449221652
Si 7.567212905416845 10.713978525224624 7.004766541847506
Si 6.949018342082951 9.767200896166012 12.476844096681015
Si 9.61428743613123 9.00076125810085 6.632411728562916
