29
Energy = -135.17797723 eV
Si 16.05026973208008 13.30198528524386 12.547305867092184
Si 14.090960739945896 14.558084117462268 12.050313111991514
Si 15.56248828748643 13.055642275010872 10.24848143304397
Si 15.54653614510184 11.04107402662573 13.338358311080215
Si 14.648843616744038 10.67423002986958 11.111377281749593
Si 13.63439515312155 12.27368734010662 12.802695963454948
Si 13.96185785830807 14.656966656584373 9.635459276645726
Si 9.89083013579386 15.08147288559214 8.277940592075998
Si 11.944448201603784 13.977290171416227 8.540993430277119
Si 13.10084426053444 12.393832982594063 10.23654373136497
Si 9.087028080344675 15.011437638359434 10.479433269704119
Si 12.269924048715092 9.4678504543845 11.331129122247818
Si 12.479874931506094 11.766737095966631 8.012895273360805
Si 10.095567014935646 10.87622303552942 14.981758791644348
Si 11.581248873984281 10.988926905093129 13.104740911281239
Si 10.483470789695986 11.49103049694615 9.333684092032655
Si 8.795700099002058 13.059478635168261 8.870442423512117
Si 10.79036156359006 12.621398234697688 11.4895300629291
Si 7.023519565247198 13.851827080709944 10.268788465719252
Si 10.129778422805627 14.616456571582242 12.621347136333322
Si 10.75634728858277 9.114119801002687 9.473771665787575
Si 9.118465172487822 10.979334609197188 12.756449435069277
Si 11.716731066400962 7.490573759100609 12.534874746712301
Si 10.269298511531609 8.642949730127214 14.247648591205694
Si 8.349271286201471 13.116811056235832 12.109066692071577
Si 9.675725105131912 9.02425236082592 11.561822924602305
Si 11.023200571056371 6.509215745428006 14.677066960929794
Si 10.878458793544734 5.344089202903012 12.52063064615356
Si 9.123741735613047 6.995865826567886 12.847045629026805
