20
Energy = -93.9466109 eV
Si 11.095234500432323 12.460372470491428 6.764953792783273
Si 12.290153081568898 10.18344460201351 7.407545633552588
Si 13.26413118201404 12.470238568995518 7.877518374832442
Si 9.132885196500084 12.751753828488209 8.197842490802085
Si 11.276681460926945 13.537548828059288 9.134717410266875
Si 9.887214128376657 10.37233375912315 6.811136094601764
Si 10.815970328943633 9.571784732056251 9.152406688264902
Si 12.436091652572872 11.241509373385341 9.81469738864885
Si 8.62986486667926 10.449718107610991 8.917509238152899
Si 6.8955254687878265 9.334601349441854 10.083125554484575
Si 10.137004911758353 11.797809407165424 10.34305357535867
Si 11.312212228075468 8.095129613925078 10.923600705127283
Si 12.97511552821472 9.647852930311274 11.66859502540488
Si 7.9099389205195525 10.011131710627069 12.108947834268712
Si 8.146724933346487 7.604060430757701 11.183712285527973
Si 9.370856100091682 11.857851643372666 12.586276412571522
Si 10.820905416350705 9.994662447359532 12.584189984998474
Si 10.084344742083061 6.174466026510295 11.524183489434375
Si 7.398595740392292 8.119549010253266 13.418959694878108
Si 9.765448360036057 7.969079907723787 13.141927073710658
