26
Energy = -120.0777279 eV
Si 10.060891766963667 6.334446515010184 10.597244780855787
Si 7.650437741573877 12.820511272701856 7.727137371059889
Si 9.151978809322866 10.401750115095828 12.45427060774321
Si 10.982038443699956 8.806108370086145 9.499331148221328
Si 7.732698772515379 5.830505030962256 6.943525670760203
Si 12.008041792535119 10.168065766992825 7.833810717339012
Si 8.615118280134386 7.062531558199006 4.914378061435498
Si 7.356071618239127 8.883120268391085 12.001852494283655
Si 10.297220338358153 5.979103002396063 6.485213718982825
Si 5.822719297634877 11.406360972653983 7.167257910449117
Si 9.239031420785873 7.054906633974774 8.487478057175904
Si 11.859438543616282 7.599079031217395 11.477215685395105
Si 9.906178273365603 11.631710850175988 7.506735549985045
Si 8.734215825384954 4.781940436698703 4.94598363685925
Si 7.7951421168494495 10.462095027423356 8.291603348764667
Si 5.60363333886593 9.097627632356156 8.27066479612469
Si 9.739253421923781 8.013018698272777 12.566144599123357
Si 7.927528523849736 6.307519617867069 11.56954247021319
Si 7.825922937583388 7.222074012926842 13.755231896518428
Si 8.977767485943346 9.742295878950133 10.217886803993009
Si 7.3044393262381355 7.829644350994185 9.757919147889476
Si 7.469657253735003 9.20861717296675 4.602170578557525
Si 10.700792214352921 8.305566863986042 6.917697499065998
Si 7.307292477227579 8.24364351323432 6.825938788519023
Si 5.2476779482393 9.390202394533809 5.839936019492414
Si 9.103976237286515 9.835872902701901 6.253778541489252
