27
Energy = -125.57832423 eV
Si 13.532309057734821 11.885677614133655 9.586104377032713
Si 8.58039816787825 9.63831430273714 12.202156167501855
Si 8.671117397952923 8.687441979856589 8.14374886788463
Si 7.4701765438159295 6.131121822584068 11.746104937098997
Si 9.78767092196861 11.86325732518637 8.981989463223785
Si 11.58021562085037 7.126601559676283 11.591120147894804
Si 8.229194541428734 6.099243298856376 9.55170122701206
Si 11.705098985595788 10.184090480883501 9.554505906743271
Si 11.056264997118568 8.586998027932598 7.95082387505027
Si 6.242722135875247 9.750632762084017 11.485787599904993
Si 4.84054058014767 8.113090339681474 8.509430615168853
Si 9.484224800794276 9.650256456635026 6.13369564278283
Si 10.609202772001778 6.645649715114198 9.411347534950286
Si 6.073774033046505 7.5981256093313005 10.484495280022745
Si 6.937690738188601 7.180383183280774 7.8646146155157775
Si 13.266399069899066 13.759372832584173 7.978544119161119
Si 6.564479937801403 9.730035746842708 9.135870604917818
Si 10.159856750873038 11.05171749347688 11.278671783523457
Si 11.69919891674253 13.659672112269593 9.67971379984007
Si 12.216632580547769 9.556055586652594 11.830785480979339
Si 10.512814988089035 8.510934876304582 13.329646682141195
Si 7.994280524655508 11.053874815211234 7.603398913665627
Si 12.30924824091358 12.200998015085016 11.743659299988716
Si 11.76328339277063 11.95041362573522 7.6591216532255775
Si 11.828211225209625 9.960511733900097 6.128294788896583
Si 9.26613654574562 7.702232853348331 11.186736162722545
Si 9.68183254927993 13.407890228679358 10.85463661721825
