27
Energy = -125.88328295 eV
Si 12.326215568926587 11.34072359298669 8.859939913158852
Si 5.559990813309092 6.915101131754784 9.118623166775476
Si 8.697591631099526 11.255481548338475 7.980147889445599
Si 7.85461334551341 11.438625584764273 10.477695603469513
Si 11.318096214866037 13.40509770349897 9.830213262351972
Si 7.384291737988553 8.291859145338197 8.29268204955285
Si 13.290625053559204 7.491181997481493 9.067063709418282
Si 13.069455844888195 9.397831954698297 10.685575265761612
Si 10.50073258319316 9.900737181640816 8.594919758171999
Si 6.298522526905719 8.651908741367743 10.530401354982322
Si 8.071567932623994 7.388413496755733 11.746912804649671
Si 9.530525057672996 12.94285293862788 11.533517417194336
Si 10.350154395389671 8.011371530434214 11.683811532286414
Si 7.061431584951438 10.109934663194453 6.62956783199262
Si 9.025085971821877 6.644592749534576 7.534254677644164
Si 11.026641812216974 7.6283660875450074 8.43900203757075
Si 11.766497057440322 9.722409638202796 12.605300975658581
Si 8.832507077133194 13.466038366676624 9.231947104531079
Si 11.627207355190311 6.294270605290457 10.685511352890982
Si 14.274651976669091 9.878289780961094 8.79615158279465
Si 7.176632439354984 5.639982945525769 10.475505995924323
Si 8.807962053678311 9.309876936665795 10.202337730172482
Si 5.468610525266074 10.967829172042897 10.800835861404716
Si 9.41167690234847 6.055998621821548 9.812608950643103
Si 6.164507481011558 10.758044724437394 8.62404420348842
Si 10.848861918876963 11.007628476019198 10.810541979833733
Si 10.446928197924937 12.913827313184774 7.508245528332606
