22
Energy = -101.93726672 eV
Si 11.319400680986224 11.5412973537865 13.07998174591378
Si 12.893509440033547 7.925800399149944 8.450315239655117
Si 10.641506675139915 8.285928271316822 7.60075335283976
Si 9.34716505024613 7.567311133330389 9.964018520136804
Si 13.175756406728228 10.261266870506015 8.16559871610028
Si 10.034898265228218 9.938846511955902 14.504850651445262
Si 8.041409842124692 10.92320687720297 13.627523392973478
Si 11.322763743437873 9.08705421051945 9.836074441693043
Si 14.18683340170397 11.751955860586689 9.71483016984996
Si 12.695791211221 10.634484470607843 11.180537029801515
Si 8.543092497411322 7.242177171187667 7.63671851835831
Si 8.528598816487172 8.407248239510421 13.167527488370666
Si 11.938178361247742 12.04375152349132 7.1518450338056025
Si 11.689067360170766 12.112761815972611 9.53959849771568
Si 10.28673937009602 9.605283304114854 12.038374845341114
Si 7.919647155733201 9.804834345044851 11.279470202582692
Si 10.27863529724449 10.57690807886964 7.95297651757891
Si 7.889610692844876 9.160541246344666 8.808802674597953
Si 6.307023563128676 10.685018480390259 9.742122929574611
Si 9.355023910243021 11.920784917949993 11.813373023362214
Si 9.68588040705396 13.445633386461669 10.055564379866269
Si 8.452423159292087 11.612209232660785 9.225126170451015
