22
Energy = -101.03792187 eV
Si 13.986778374411278 8.752185457916543 9.683047441272999
Si 12.59707520950206 8.603906284469934 7.796835965832382
Si 12.52497128631826 9.478583216355476 11.297912474012142
Si 12.212929828901148 9.977475586859306 13.581302742596737
Si 14.411105704538242 10.287423606513977 7.798831156138882
Si 10.717057965342534 8.214473111360856 12.139326826182469
Si 12.833686663513006 12.298157613651044 13.019712224587446
Si 12.656619576624657 10.91058462966762 9.17718869981068
Si 9.720857633597545 9.670024827718349 13.968011448713478
Si 9.577708984461868 9.47608106506176 10.416610018541482
Si 11.95666124589998 12.608911447685646 10.848295413844513
Si 9.574665528743765 12.035778290284217 10.590624074763573
Si 10.34603210724501 11.64144504586022 12.811810644037015
Si 10.980472180074814 14.024253426967272 12.994468745470485
Si 10.661528295523956 9.835319227990324 8.26219205815887
Si 10.405520202003164 14.424796363244628 10.589723254314999
Si 8.320197167372823 8.379367331836418 12.329395076438997
Si 8.691880888051193 13.559887443600434 12.228897893861113
Si 7.928087685180598 11.206127728397329 8.971504246151314
Si 8.84167780701321 10.502486676299133 6.853163889127669
Si 7.036046634998832 9.411642112897894 10.29256265102934
Si 8.319391771260793 8.764498272792022 8.405786599544127
