23
Energy = -107.77975332 eV
Si 13.83926978659687 14.085103542574828 14.906264446100307
Si 13.432542739748705 14.235108441360108 12.412026798904911
Si 14.376705361818482 12.5119459096669 10.980859051507895
Si 16.287636394215223 12.37329992497399 12.47976696888386
Si 11.241376535852062 11.961009381189328 13.473275234635992
Si 13.653431757204538 11.99179141437722 13.292415211380964
Si 9.520877083385525 10.354878362304293 12.838601355348658
Si 9.151917029531255 11.793809949715705 14.897172923269748
Si 10.602656979975013 13.77680016004899 15.005616620400437
Si 8.078593153031873 13.810746262327182 14.211018179771727
Si 10.25109685268453 12.290362257778497 11.149889964500584
Si 11.05749310895819 14.136102301031043 12.537578609863845
Si 9.500388584944364 15.66477919051321 13.683009378148475
Si 8.010148922048314 12.183222753789753 12.398701085575889
Si 8.788775181290273 14.285433362756105 11.552455073420445
Si 14.763713942217207 16.0137027243182 13.394634951391351
Si 15.785632407158774 14.713544801416829 11.488455718660635
Si 15.438598393088867 12.180155995049898 14.8959178212898
Si 17.682250900013564 11.112113718641998 14.507466961184825
Si 18.16965833468232 14.192251183963515 12.185529123766333
Si 18.64653712671761 13.393555007033417 14.514498563779073
Si 16.3094659836508 14.29728508383278 14.054583650969338
Si 18.675880773380975 11.907645639140892 12.4049096572453
