22
Energy = -102.14075129 eV
Si 11.101862195311186 7.104628179896094 5.872990261517306
Si 11.255968244366187 6.80239091608784 8.222632854617238
Si 11.090629256484746 8.230490569052371 10.18325988542028
Si 10.5857160920258 4.498742608705105 8.560468371483685
Si 9.094356786666555 7.1338884318480345 11.119165201301383
Si 9.305143981552044 8.66743041349538 6.135941209882885
Si 9.406140036136323 5.697365818309453 6.898026771219929
Si 8.867765113124726 10.265631143482786 7.829886077618866
Si 9.709478582460122 10.324330941324686 10.07861005309972
Si 7.715957469375929 9.088274308263427 10.85602620068981
Si 7.722782591268907 10.3501830303328 5.337748410302088
Si 7.217925326756768 7.819479351309655 5.355003605561979
Si 9.035360870753895 8.02727764382538 8.833139311976263
Si 6.086757324522263 7.284014388063711 9.871529856541342
Si 6.761907547495697 11.394933161304193 7.590123101259073
Si 8.632970663266162 5.437822497604879 9.520956404421087
Si 6.29308189731633 9.109954515784432 8.314670534240808
Si 5.467829199489485 9.47149585501782 6.049144576150324
Si 5.371191732735679 9.411856340750957 10.54965957992208
Si 7.238183361245239 6.717037324373345 7.505765446237724
Si 6.292667630556503 5.120637442077122 9.039942882694893
Si 5.887288484670883 11.761520920359986 5.374420775003412
