24
Energy = -110.99084728 eV
Si 14.670864069644118 7.792103815688991 10.07921606900394
Si 14.31978701168699 9.96752773926258 11.445254216910145
Si 12.905125091503923 6.826557510938216 8.680420646032928
Si 12.427283680879315 9.261488519366793 12.682469024385144
Si 12.279020974714985 8.009012331459582 10.667594881901556
Si 13.459836554818905 9.546715827866732 8.973456758494208
Si 12.426105263777028 11.666441554165639 14.235305721852953
Si 11.272463817166274 8.712235331073506 8.61323576402501
Si 12.19131783752681 14.030781389504673 14.275241576923595
Si 11.19946546154598 9.674217197187158 14.698151889694866
Si 12.080370666059066 10.99944550798521 10.92454189452688
Si 13.387150467730542 14.666856222091694 12.310728554971623
Si 10.423334686241706 10.899523205317406 12.793141101827027
Si 13.8735725543847 12.380038125227923 12.516119324340938
Si 11.448019999547949 13.124947294173586 12.106181036179002
Si 8.116903533548975 11.559261593557538 12.12791000726604
Si 10.072725552866356 10.712961023631836 9.567540288273145
Si 7.990436504499355 9.886490441381406 10.385262140148637
Si 9.977035051166357 12.681099060724605 8.21450310934512
Si 9.365812168686723 12.995104356993945 10.649850033816882
Si 6.605160170730179 12.041367606872392 10.250516395153326
Si 6.140003880302837 10.041008529861292 8.906961710593672
Si 7.8459731700745845 13.80590672469764 8.998466783300557
Si 7.954472435702236 11.408719989850455 8.16489056954892
