23
Energy = -105.82009832 eV
Si 13.855058925499828 6.4132745923424395 9.778938159553775
Si 14.696792110197448 8.131274115006462 11.319429321598655
Si 12.868980000109342 8.557128645218688 9.800900478196791
Si 11.473455873683161 6.518610800568293 10.05717101305203
Si 13.007891147164063 9.60474667881193 12.049505032995109
Si 11.268141628586926 10.115164570692077 9.060001639422815
Si 12.070069061524793 12.251440042480345 9.814219226748515
Si 10.722355515540842 9.528530361567011 11.332615160991761
Si 13.084010308697776 12.016500571691468 11.962633833514218
Si 9.635997059251274 12.078882976725872 8.396570484256959
Si 11.259482394533896 13.956794783264561 8.345975129805588
Si 9.757933893128756 7.2141680784924604 8.624340049042088
Si 9.46368895401607 9.659859961066328 7.544349361787894
Si 10.698442088542347 11.925694117171346 12.101093987959912
Si 8.664569358992898 9.35678802068521 9.778676504388912
Si 10.080668531304157 13.856514582719052 10.323577504328355
Si 9.673825442776637 7.35992227839856 11.315199935121225
Si 8.734911372142335 11.674828583001208 10.648814416117043
Si 7.734931747060351 7.168712897496545 9.927379447586324
Si 7.747081249183826 14.007162316100112 11.182929778458998
Si 9.95046446781788 14.31106853545386 12.681460264256856
Si 8.34421278594098 12.32228091275411 13.108227961499871
Si 7.749111548389381 14.625658390630434 13.45517830792396
