20
Energy = -91.89396406 eV
Si 8.578050542445421 8.329294867324178 6.941432463469803
Si 10.319965157998945 12.553491300744792 7.902384334741289
Si 9.73558296784732 6.382540462364981 6.600503280264005
Si 9.208901072645316 10.608924067305002 6.801625320837618
Si 7.265530916840377 6.308169971718511 6.947666567315322
Si 11.414587943386467 9.887574900173325 7.663385757343643
Si 10.744589799153756 7.531358784050485 8.500370360660312
Si 7.892417622014943 11.836107115651686 8.580560206615873
Si 10.986642317849347 9.684195281965419 10.12946447437126
Si 7.0190509868668425 7.756780192225565 8.776093041649258
Si 6.179912687324872 9.981663429549107 9.387276074127454
Si 10.658088879338802 6.027232408123691 10.288910825529069
Si 8.712573118407938 9.586976357594759 9.134305029294339
Si 11.295940378372206 7.990176451117589 11.769400716787281
Si 9.688166454921491 11.732275194886748 10.301854300461908
Si 12.083889579947448 11.629224037703908 9.261647259521785
Si 8.858497741046653 7.5223251599046925 10.481498019346553
Si 8.65830230205294 11.421679216815539 12.474925285601067
Si 7.17930287148434 9.865655553741789 11.513619738076924
Si 9.307068510526143 9.151417097510343 12.330138794456909
