21
Energy = -98.42514421 eV
Si 10.197541816949478 12.812938773218669 7.788382076153251
Si 13.61376346324878 8.598997831471925 9.906631037101715
Si 12.080135372266339 11.726109487776798 8.831080188953413
Si 14.173572909444024 10.578526622452236 8.565238701094337
Si 9.542541482227435 10.736677518009524 8.731575538972464
Si 11.42794555850833 9.61604896696376 9.988183400985532
Si 7.531580971096902 9.595041933454185 9.17108383383668
Si 9.875926602260813 12.963582601984646 10.134645881504396
Si 7.454156343833323 11.610881725211392 10.460240204175207
Si 15.024704883112298 10.559564263512119 10.803355628280116
Si 8.079258875719125 13.61238331559552 11.53371439278027
Si 8.296166383819314 9.240403840597908 11.426647222270566
Si 12.971881607013108 9.647598007953887 12.021825356696265
Si 13.870418643835094 12.679459454306919 10.162626023319532
Si 10.338635399980449 10.328443671923365 12.716880515149866
Si 11.686242459885325 11.805949933615464 11.277787027463132
Si 10.38012828269108 8.063636552456755 11.592606672625008
Si 6.442334568789177 10.275369120071607 12.407700563559752
Si 8.327022996138334 11.608492110334723 12.916269067792678
Si 13.764355197295217 11.97573859801089 12.492042752105762
Si 11.536574482278994 8.579043971470192 13.686372215572236
