23
Energy = -106.28405499 eV
Si 12.200328976398888 7.504108723194189 7.044888392586729
Si 10.038046516792464 6.175087436344822 9.907522003873671
Si 10.207347624850314 6.431990362469296 7.551846115360526
Si 10.664288633413966 9.083853641608288 6.072357728015625
Si 8.065427435269937 7.043466000404431 6.8583269635272694
Si 7.899803495528454 6.408689447020693 10.897243029298778
Si 11.325852386533558 8.11859856255011 9.305876263599949
Si 6.190854104568685 5.107912471808119 9.581047517541192
Si 11.078320367561181 10.48113444412777 7.898904445812228
Si 6.108957242804998 5.633901144791534 7.065596704454661
Si 9.15313720072505 8.495258449677886 10.669787526701516
Si 11.84237212393489 10.235721662134878 10.147796737210472
Si 6.813364874218145 7.38202351967843 8.905878057955746
Si 9.005570659763913 9.055622454388873 8.02279522064549
Si 4.427945970515146 6.486892016359538 8.691172714275272
Si 9.327063424345402 11.827167558498708 8.698325761928789
Si 7.700489765684794 10.214564533411247 9.811552201173248
Si 7.924268468743069 9.215413228070128 5.591864884410221
Si 9.656526195661307 10.99246582452662 11.08311671479969
Si 7.4089725683465675 10.947589704361024 7.431883737480738
Si 5.735149066510348 8.036262065411867 6.25468520348991
Si 5.0472970621380915 8.826481430732828 8.341290771368003
Si 5.597387406376219 11.033445811519263 9.090064437144347
