26
Energy = -121.31353696 eV
Si 12.470360887839599 13.21564186787419 10.245942773152866
Si 9.297869820391417 15.105984346511127 11.483116324195455
Si 6.7264701017301975 11.289061932476061 10.876567572438004
Si 13.31827815263472 11.083159681059826 13.639749648173654
Si 9.739591503149136 9.663421499539208 13.879345006982739
Si 11.070304120116905 11.654947530940088 13.91573206830807
Si 9.26185011701511 8.509736220251465 8.349030857661713
Si 9.11009083843698 11.785191693519009 8.703428475420134
Si 8.05318280460986 11.005381110226098 12.874731986780402
Si 10.753703222044644 11.458509813062301 10.566094558453358
Si 10.780268141915323 13.286887791195147 12.157086326505244
Si 12.647208199801378 11.239892429709293 8.870617611584754
Si 10.106755755638126 7.921268253832521 10.506806355604196
Si 8.394642341733139 12.988515711542224 11.401998081048898
Si 10.88099860770502 8.55445575851192 6.599236550402457
Si 11.712993879673826 8.816422793772384 8.87777659913016
Si 14.039066497478835 9.36006475536989 9.101052977997064
Si 14.3888877189149 12.261661453467362 11.870817919426926
Si 8.890876606202257 9.954180338011817 10.782775697009233
Si 10.879801149226452 10.792410982071527 7.422188730859356
Si 10.992030109943158 7.740955925196977 12.909645041714077
Si 10.037212330433467 13.860030831336667 9.452635741023578
Si 7.4278774100723925 10.128874044478966 8.796832467411114
Si 11.66260960954132 9.918108925949563 12.188855294474317
Si 13.51175616283605 8.647159025944275 13.3374792686034
Si 14.051346450731254 9.964107944334797 11.396488605454135
