25
Energy = -116.08052034 eV
Si 8.974598109718604 13.172616999260933 11.766471719767491
Si 10.313445837144899 14.034315907110493 9.89305059162853
Si 13.706825656757115 11.767828391693913 10.449473727549215
Si 8.414152447318852 11.478199144751311 8.203818223969945
Si 13.200331148333404 9.091361009849713 7.405538795550381
Si 11.0420070475595 10.145277624098107 7.305907665316435
Si 12.013529184150578 8.781466427860298 12.68082047371371
Si 12.616575095502233 11.136759449693994 13.337798535189165
Si 13.079284731287188 11.558028492574756 8.1172571622961
Si 10.122486799605465 11.469654573822826 10.338850967773096
Si 10.699882628621799 12.392227604812078 8.20337834273359
Si 8.888657921037817 11.145220473711452 13.066235208370111
Si 10.652755386434194 9.1771739051805 10.761736184758389
Si 11.912773959203122 12.66200731751068 11.665995986892684
Si 10.644120953270281 7.807945658690612 14.472702894237635
Si 9.261897702159295 8.73393720477761 12.714522599428976
Si 7.0270849314273836 9.861306127629888 12.060843042126752
Si 7.478389004096229 11.759788141586956 10.522793657745595
Si 12.85297469406008 9.597795929510275 9.756057053326597
Si 10.668359617343727 10.176104150814934 14.35672110722139
Si 11.02735068338396 8.047730674873213 8.65101528337883
Si 11.034898607285049 14.783232874841431 12.015370711478491
Si 14.209768316486988 9.758318220438829 11.909187380867332
Si 8.424429627831515 9.475056539564532 9.931367399061667
Si 8.867146289611183 9.12037353497049 7.546811665248222
