25
Energy = -116.616988 eV
Si 8.599077108834841 10.012426808733425 6.554338829987733
Si 8.919810933122504 12.270334151981034 7.18784998459461
Si 12.487001215310283 9.128257077595325 7.3768828931839705
Si 6.677644371510555 9.671825188169596 8.109349248938774
Si 10.154328180756591 8.629733919641065 7.802387967214462
Si 5.124538044281696 11.168535308249545 8.998855363870245
Si 12.955583408804346 11.45419309925507 8.219661449940666
Si 10.818746462913634 12.49569950423044 8.591108801084633
Si 12.103519902436226 7.70538171377146 9.303665109787316
Si 11.34907943338511 10.093460131303935 9.498191996590341
Si 7.069055283738026 12.465553499138311 8.847929784750066
Si 9.03752977458481 10.60671646443412 8.962901372068195
Si 7.070309857215205 10.561145553095093 10.351965893179798
Si 9.961084191533676 6.637690922595136 9.145033879524593
Si 12.737128009991299 11.715630096368827 10.704458181354907
Si 10.324724542889015 12.02184055900615 11.568861253667325
Si 8.917882962871614 10.12039297885417 11.78592527977611
Si 13.72935696107125 10.309701351661522 12.436719389091719
Si 11.444334492212494 13.79201686212717 10.522988999913201
Si 12.317205938537093 8.671907706486826 11.451627537945875
Si 9.609042124516657 7.934938357476417 11.178715937137406
Si 11.122173730928674 7.751727148768638 13.242841672089543
Si 8.898754985650287 7.1204121739559945 13.313487169456607
Si 9.434593039222078 9.474591491390582 14.049631995210559
Si 11.41302279243132 10.461415680460068 13.070147758390206
