26
Energy = -121.06748599 eV
Si 9.821927461212981 14.269667655933498 12.065388773891755
Si 8.436925552184274 15.388178208426021 10.47977927716874
Si 8.23719024712277 14.150812316252605 13.978915135149727
Si 13.144965621395967 13.449233582735443 9.538190953364515
Si 9.302987992208134 13.421934431919722 9.566109407060582
Si 11.200330415021721 12.12750176502776 9.004808764913287
Si 11.656696925467536 12.86084476632944 11.35488857567404
Si 9.075619793908986 12.06179194055215 13.334855278034942
Si 7.364236877609267 13.632821484373443 11.745590958762678
Si 11.374022421502842 11.478116260301022 13.27574515285302
Si 9.680540508575394 10.349940514692188 8.028748986548745
Si 11.012866654077426 10.42380230973233 10.928339230661448
Si 14.130715629437873 11.525188746921032 10.418208607725024
Si 6.052972716045824 11.852922982030524 10.761234369624084
Si 15.548550684064349 9.69043732253047 9.90561043747753
Si 13.12427709529126 9.26448263469873 11.17109651835384
Si 7.985930176911722 11.55147226800135 9.207541388483968
Si 17.262892828178977 10.04050080708535 11.593201680160437
Si 11.587253899328893 9.00058960798352 13.111029989035336
Si 7.975076163147064 10.919041110577044 11.633168923445579
Si 15.421426675955557 11.348545944728599 12.347719101473736
Si 14.497571014355785 7.573915635594812 10.31180266394489
Si 9.059354083666427 9.314734620920909 10.236316535578565
Si 15.611353140025455 8.480322160980993 12.274522051012813
Si 12.372086235140861 10.244715212267424 15.07647825012098
Si 14.042780091051636 9.7718236792439 13.49587354961741
