23
Energy = -107.45916817 eV
Si 5.693023947150458 9.273437774496685 10.637467351386277
Si 7.585023255801726 9.655978630689807 12.152764492397818
Si 9.394042289454077 9.936749434225968 10.63721637155654
Si 12.479976689115666 11.118028284677644 6.7830802141372635
Si 4.955192207762193 6.981890847933519 10.826624135610013
Si 11.46300449508998 8.521245653480067 10.939935325906166
Si 6.2989734647433595 10.304294068669897 8.531935136782433
Si 7.686510816493738 8.619138564724263 6.549574949839398
Si 9.19822352313266 7.864276085532636 12.098075713297918
Si 8.730761601247734 9.8640253119885 8.3548455007941
Si 11.29608829369579 11.34875011108546 10.571988883664437
Si 5.757922534529306 7.55980730411815 8.645612495505954
Si 8.223396995574587 7.16617747633565 8.493988975494258
Si 10.563268016621693 11.63552991642603 8.233063674109925
Si 7.296177955016255 7.365780697262569 10.778375851910162
Si 8.686676101292534 6.371456502031282 6.148573039296098
Si 5.324718326873412 8.921371562803598 6.783676596571284
Si 10.103663296588783 5.6836637506202825 8.21918475597611
Si 9.57729662252065 8.500684504460802 5.00233523595623
Si 12.406806913338928 10.038459609876552 8.888810102020129
Si 10.554641142203483 7.963761450076282 8.810128348792048
Si 11.099583442020434 6.959185138795187 6.345174752668476
Si 10.79666556390794 9.455222633945898 6.8704981662969935
