20
Energy = -93.66038558 eV
Si 13.620359037712301 12.766237738858763 9.736348957899553
Si 9.87076495583014 11.48793220007714 9.530015313482647
Si 9.8532816312099 14.253206873475786 11.093710273054107
Si 10.547505623186117 10.515919702998438 11.923414937723662
Si 11.538013630311394 12.535493056936428 10.96989620948325
Si 12.579121411008696 9.27925192280016 12.34719067396868
Si 8.074651943624394 12.847006778439038 10.335952327257417
Si 13.789362246063279 10.543316299314354 10.791286637921639
Si 8.362027627967496 10.304300265160421 10.99958809459846
Si 15.646942289028987 12.301684640377205 10.900395437834334
Si 10.551345019879594 12.644273666316073 13.200683854745701
Si 6.811053953550202 11.83224954887037 12.180556029591768
Si 15.793601084176686 10.131333506599256 12.23375514402683
Si 13.80545064407391 13.523006755054556 12.193364473712235
Si 17.602202697891986 11.758956146156514 11.998042288949705
Si 12.726805296741682 13.001223663220573 14.231724808660426
Si 8.771310241728596 11.011511325741377 13.543534474236223
Si 8.392933222640774 13.578367859895925 12.885014416225177
Si 13.775888894997028 11.050944575604008 13.400382771692856
Si 15.798865991793758 12.545270917520352 13.416630318351904
