21
Energy = -98.17213099 eV
Si 10.310789974918164 10.51404457322542 6.5695822313143255
Si 8.23315421002191 10.085743126347204 7.6671285286696
Si 10.44275663421364 11.90524891571705 8.415179057716145
Si 10.549463526956568 9.186278060559008 8.553733688352002
Si 8.492096196228559 7.97335747142827 8.696573002120779
Si 6.585755259762208 11.257542328918984 9.008816868658965
Si 12.92065291880465 8.725666168508198 9.314116961386098
Si 12.486248663922728 12.575725424486379 9.549028714014135
Si 7.925443045437632 9.65332862383768 10.233892124863106
Si 13.938080765712577 10.733211371070032 10.0968310009677
Si 11.323151842124384 10.523707990579966 10.469633019339623
Si 8.589709250310076 12.123759014040308 9.837458654499736
Si 11.428180109222172 12.709668500665929 11.636127570065367
Si 8.509412096759355 9.279517756123301 12.519908367177615
Si 12.996345753045153 8.90205362031725 11.705443236147971
Si 9.180355676961529 13.277973936595247 11.871842724041356
Si 12.569774811086896 11.322064779674198 13.184803513757315
Si 10.861651471302316 9.286227919135104 12.742736516976818
Si 14.662629783063599 10.454018902725759 12.43585377411971
Si 9.418707427644899 11.345103330103559 13.156763243810481
Si 10.99331087805718 10.5834284814984 14.75221749755795
