20
Energy = -93.19363575 eV
Si 9.16286249937356 12.595279993004148 11.493829942358492
Si 8.928600434291704 13.241980813743751 14.21941360505715
Si 8.608956296661162 10.932111568238836 13.28667434422806
Si 10.900860303377126 11.888560453253591 13.293158963885503
Si 7.093304846861402 12.709680780848956 12.683954301135952
Si 8.627314536229214 14.843364392519609 12.38914078865715
Si 11.062569140560214 14.265854152734331 12.61172513253711
Si 14.388063066459502 14.228300542462906 11.105339329827494
Si 11.5978241571745 12.57460335748817 10.938552109965743
Si 12.101230907814895 13.694788591378487 14.784182219761846
Si 16.53785193829601 12.898694084623845 10.855878698604716
Si 17.741192654810497 12.82540877001347 13.062511671672214
Si 16.54107883698541 10.763238250255084 12.169889578677044
Si 14.228365732341981 13.912510069915855 13.547282191381038
Si 14.41910102141874 11.921414989533906 11.848753729786795
Si 16.364257431676414 14.876237591720463 12.532309507030153
Si 16.304796173727606 13.984227001279082 14.854175578274939
Si 12.477435415455266 10.449325121943236 12.02983562278961
Si 13.241583023185258 11.601435706504416 14.111554174180807
Si 15.662069565496013 11.78230175073342 14.171156545796508
