25
Energy = -117.03827192 eV
Si 9.508074480712834 10.688201224522643 6.432111494284836
Si 11.485892846990865 9.304494742295743 5.597095727146803
Si 8.025996583675221 9.034180167657773 7.210388945535593
Si 12.047625655015448 8.729740883557719 7.852837973126311
Si 13.541353038753568 10.294951295793092 6.801908049674546
Si 9.86795332860753 9.816129466880211 8.699785672988401
Si 11.799278430362914 11.796070142913296 6.145347360884493
Si 12.125900056477931 11.0627917441613 8.669008644360447
Si 6.963863630270001 10.091714849317697 9.090065040704797
Si 10.20614116404585 12.455144481353276 7.953487684562378
Si 6.874830409810182 12.146043555422475 10.492833076854495
Si 10.31731699671289 7.627408669605451 9.66724963939682
Si 12.944212353565055 11.106804210194678 10.928991646864336
Si 9.119437895833803 11.766660145152311 10.013404856992555
Si 12.582268273405509 7.04153219793718 9.42996688702568
Si 5.4159187332916146 8.525517331728878 10.148119219598989
Si 12.273881576259466 8.785664498118615 11.046710855071096
Si 10.702402497518293 11.141476499890924 11.62472740144705
Si 10.256230606475027 8.573672919847814 12.278118586125789
Si 6.472599882556141 6.837731776003665 11.666363114382312
Si 8.958351215281388 6.730718231742582 11.430720916253982
Si 7.635436097507233 10.640922848429536 12.29190600144052
Si 5.894437571048409 9.055170590091317 12.459376921232066
Si 7.753126890482113 8.729863092099322 10.899023788966987
Si 9.677792928041129 10.46771757798243 13.62077363777858
