21
Energy = -97.00038883 eV
Si 9.80370861782186 10.71374979779402 7.045829890229196
Si 6.734420923445046 9.65524469672507 10.122916230066803
Si 7.630895881950981 9.75168736064964 12.460778381113858
Si 12.862267168272812 9.904190446891928 10.113613800324126
Si 11.616012823915932 10.065385212545715 12.4714400598295
Si 9.741876763422338 13.139408034560002 7.9880601928811235
Si 7.817473629722032 7.618974830648074 11.351070975035006
Si 9.963575612439776 6.660659124350723 10.853184727771042
Si 9.72858614525396 9.071809245845472 8.89477342218806
Si 12.068360653665847 12.100933624688729 11.054333726162943
Si 11.980514609791816 9.791427425080094 7.652616760569578
Si 11.698993820661276 11.898468935227806 8.731191118810644
Si 7.899806638320521 11.754260272878193 8.817909329775352
Si 7.628887424116656 9.739683162055625 7.569130760839758
Si 11.951967390325061 7.933652330513197 11.388672657874997
Si 9.749529124470524 6.5895818636684345 8.421321467214865
Si 7.6581318344482305 11.921062909490105 11.128039032616218
Si 11.88894493303558 7.640681379022947 8.93465045307526
Si 9.818819617893904 12.660753250409835 10.353609755288302
Si 7.496476817183768 7.585254523460751 8.87238284250893
Si 9.708690238548437 9.25107230238466 11.222415927117687
