21
Energy = -96.38714335 eV
Si 16.139157548499863 9.303487989518677 11.447076627736777
Si 16.30095394513564 11.7397521060651 11.081950632038549
Si 16.745963742401727 12.052080791574038 13.305041706016826
Si 15.43206072236929 11.843357969178918 8.853111681678905
Si 14.934170602757336 10.605587491292377 13.022271743942358
Si 14.200372426711922 10.336258585913129 10.376548921170874
Si 14.053609677771638 13.134844522057987 10.19473810587813
Si 12.815805648836896 11.136921170161038 12.184311710685783
Si 11.625603559548 12.81366186995177 9.49418744956282
Si 12.465103667409794 13.418948751394794 11.890974834022519
Si 10.991629611677109 14.904370141676203 12.980692269546976
Si 9.175885368270153 11.2465289639134 14.616019662181557
Si 10.274690565820187 14.284394006814788 10.75700633606761
Si 9.52740626833643 12.98116196858806 13.052645215160547
Si 10.579674452307382 10.62078106154308 12.694770532235609
Si 8.079277618887234 13.388212606104732 11.254724967229732
Si 8.929953923931295 9.005979538435287 13.52886600963249
Si 9.830966141385789 11.698421929436833 10.628330368847214
Si 7.341524949792222 10.634847465153076 12.763032995021787
Si 7.400956024053732 11.220403424182471 10.363718606888606
Si 8.93759774853935 9.410641355916377 11.097797279247676
