24
Energy = -110.50226037 eV
Si 9.558325565418127 9.767829254631264 12.71008099429339
Si 8.592508713630226 12.871136966260062 7.9158809626728805
Si 10.876742717905461 5.792133587416548 5.912526634714764
Si 13.204230941799517 8.348019550149452 7.899387708527865
Si 9.505158644353841 12.386180994223706 10.088716647756371
Si 8.370365364364488 6.4320786156577805 5.969763562194944
Si 8.813529890346214 12.13175538137969 12.543521273233193
Si 8.283837828990944 7.535272842395214 10.037420987780761
Si 10.956963743459049 9.104152757497395 8.302105577589037
Si 7.295864211627464 5.719615493487497 8.137472208861539
Si 9.184713453015199 8.722571168758376 6.419439965712356
Si 11.092631440882663 11.303152007575848 11.460147203788013
Si 7.4370908934318525 10.184148451928381 11.46234200993287
Si 5.635501831848299 7.349699484450177 7.1665802185117
Si 7.084437107414115 12.504979023126156 10.724705869656283
Si 9.701969553437873 9.62814938786267 10.304331660722259
Si 5.888685000593337 7.404922892873044 9.5417532249807
Si 11.7249131489387 7.992520324028621 6.061395980551158
Si 7.358720200163317 8.73290432692834 8.07727096237322
Si 6.630152209748039 7.865602501729439 11.798435002629072
Si 7.783417494520279 10.85407962273985 9.034203314458917
Si 9.858978967223576 10.93213966512362 7.242937640077839
Si 11.93452708982822 6.259333698981673 7.960804644962633
Si 9.642223234504423 6.918160038307868 8.08984327993348
