28
Energy = -130.95584339 eV
Si 8.850823183746323 6.329593786918031 9.672800391404435
Si 6.7863988453927195 9.236540897282557 10.069716216948466
Si 11.972359949249611 8.67339579851005 10.825138288512955
Si 8.981493943115497 9.822219145376838 6.958332265047309
Si 9.270308032950004 8.768841611485932 9.093301368372718
Si 11.04327302938887 12.820531717600437 11.66518657824029
Si 10.449020991565414 10.769937531461789 9.878957561120458
Si 6.972904587886541 13.326534593338602 9.050664014068774
Si 7.953109522968342 11.910645247282858 7.425607057587389
Si 10.996391450076622 13.101800489102004 9.254022244612692
Si 6.342993187556725 10.403099601947227 6.663699112906198
Si 11.129681870354315 10.438851873564115 12.192766051749683
Si 10.924642541631464 5.192364123702201 9.42236042663748
Si 11.026579262471913 6.580445737238729 11.386279116908895
Si 9.190418456698648 9.526152866660262 13.340490680171353
Si 6.684715460674226 7.10661322608301 11.231310267490269
Si 5.9474769673409345 11.099112271573672 8.862825014478032
Si 7.354020979774785 8.398014156662628 5.899690235509642
Si 11.379483319977284 9.666626774745176 6.667807850458424
Si 8.832463055775944 12.576771646365312 10.441152036185514
Si 13.095490425886418 9.244150068050622 8.798177084771416
Si 8.44084349048166 10.417254719002113 11.333315736536804
Si 8.947946744977152 7.714797089154093 11.772665093944765
Si 6.691138858971366 5.607533846166895 9.246552742588104
Si 11.201731243073398 7.421629537961117 8.641257270110216
Si 12.886167394590023 7.812731150519954 6.889447846189885
Si 12.133816284670022 11.295518432962975 8.1548877073289
Si 7.151833331182123 7.741183038674476 8.21683289423319
