21
Energy = -97.33433529 eV
Si 13.973687595364702 7.718694799764723 7.962654125324747
Si 14.602743936507817 8.74122313894601 10.082072493363889
Si 12.807656733918137 6.678773686217923 9.643302457540017
Si 12.597219893368933 9.594385172864268 9.139938758495575
Si 12.408854667997005 12.404402261422945 11.706900859555791
Si 11.399066881782574 8.03023754411011 7.836706107797475
Si 12.730733803073464 8.463508368845314 11.610901974577091
Si 11.473221849659586 6.49358094003693 11.674835755134884
Si 12.52090245082695 10.407809699385217 13.023475002684888
Si 11.786920834874307 12.005459371623104 9.439873376983142
Si 10.429884812567519 11.513533676007945 13.372144339009187
Si 10.569639182385773 8.063907699723574 10.133861554471794
Si 10.863551378901128 10.339379754924702 11.057227025012239
Si 11.710083423876847 13.601055419435571 13.618696438402264
Si 9.601594056505009 12.399669837265696 10.263167287845969
Si 8.517264803029013 10.913307817392724 11.895465683733647
Si 9.979203754480842 14.400652933769857 12.267593785144102
Si 9.01148164438607 14.805782513346385 10.086555052349295
Si 7.8144146927779286 13.279343043177617 11.87202485686437
Si 8.027164542874333 15.654318759486733 12.430550421842973
Si 6.646475568053785 14.827333055045246 10.576490432701993
