22
Energy = -101.84194364 eV
Si 11.998256672836392 13.047865394646625 11.033148076489443
Si 10.127649632569353 14.576959527479783 12.483296455952482
Si 11.91013194691378 9.336589395822296 10.400428714154438
Si 13.699640345881 9.734493074450272 13.885084519803566
Si 11.312866461859784 7.18045776288082 11.898265090080887
Si 10.175351772142166 11.035316128273312 14.174352920214817
Si 11.631729384335458 12.034191233411557 8.841252588423188
Si 7.83721043977959 13.494887726341146 9.192569711493004
Si 13.779773352627556 7.698183493997968 12.189967672500291
Si 10.149650998842185 13.819594819295602 8.811815338077974
Si 12.908133483960613 7.186177270906432 10.079288554920932
Si 12.365047235052243 7.550703113865844 14.10805447139235
Si 14.028772971142205 12.945276053817594 12.380798721434148
Si 10.022371990029221 12.236970953370042 12.164680343033504
Si 12.366034514223701 11.854621808177578 13.645364817231599
Si 10.392537236079253 10.0066750757478 8.687761367431996
Si 12.474214869899876 15.200937841651996 12.12880726089377
Si 11.001039398216696 15.50757087158804 10.275485965275179
Si 8.678880281669004 15.295447431801394 10.783724609196032
Si 9.303294253572725 11.696583070324435 9.919305879980316
Si 13.688169411780024 10.523279902853227 11.614643812337112
Si 11.41909665935092 9.533449608811045 12.811632675271877
