25
Energy = -115.86307714 eV
Si 13.384363723193632 10.36486596874408 13.594729976046212
Si 13.355904829407882 11.280270861853284 11.435056333882972
Si 13.465829760853063 13.192475682115868 10.109234018198023
Si 9.67886879754141 12.853079715980464 12.500152221113522
Si 11.260864469785423 12.8227229018429 10.840088380309425
Si 11.208537219249216 11.217037177677566 13.221386487613238
Si 11.96933059312119 11.688115155434978 8.879157730127552
Si 11.94842188000749 8.999006863093044 12.127976032373333
Si 10.206170454973414 7.3101269473805175 12.247107052714233
Si 12.246816297906522 9.550570493223203 9.82781727822218
Si 8.45418907827606 10.930383853066692 11.579390152986486
Si 9.492189318717797 9.42032377600245 13.187016228184795
Si 7.449617581057544 6.759479815761711 6.472740236689989
Si 8.812712087744202 8.646625183543863 6.183987287408754
Si 9.069791440455168 10.8698510185502 5.456787607901196
Si 6.628384377433528 10.668897988040275 8.781492507617415
Si 8.76939182028224 10.499744007126155 7.843604637902222
Si 6.961598194037811 8.463132860584578 8.009282240084541
Si 11.0400162614835 10.728261182537844 6.879967164909153
Si 9.58869274701831 6.6582451232306585 7.826676272127569
Si 8.86611403447879 7.253100620039104 10.146258988619726
Si 10.65326692571348 8.793575336868328 8.132311152459238
Si 6.145420846848879 10.593552704935433 11.146957694767156
Si 6.902640401123654 8.47102821916242 10.394151649933368
Si 9.833448260297434 9.358107944212147 10.569252068815311
