27
Energy = -125.05094105 eV
Si 14.1163135149803 8.296853404574682 7.463804320295933
Si 9.518842371125581 7.243586997074678 10.312971334745713
Si 8.762815820361968 6.948987187771899 12.673581949662186
Si 11.806218357598512 6.550817378216454 11.126310856432
Si 12.323830747118855 9.77083969166497 8.136924662236085
Si 5.458459713247878 9.615304771383627 8.560696862224534
Si 12.823081433894119 7.86594215292661 9.405047289282932
Si 7.865724591394457 10.350221618468687 11.43207114323388
Si 8.804697109532968 9.319347269015417 13.384341527662775
Si 6.130472042568128 11.49631474392399 10.16454600640004
Si 10.823127543737863 10.823150597497435 6.5148552728829605
Si 7.608820135748275 8.213838724028227 7.298020255656428
Si 9.585767749357553 9.690177175475933 9.782440092565794
Si 7.009520267889519 13.372734630235428 6.726385621676402
Si 6.661894874313091 8.288407633663812 12.318390744001643
Si 10.62317266797255 8.8108442961845 11.800515299533778
Si 9.312814570002006 11.712793689213187 8.478752425640563
Si 8.974475668313202 9.289206297874658 5.557121022769054
Si 8.49188592817497 11.593038156904727 6.094365024206345
Si 10.060459083035411 8.646983754780509 7.641991769689121
Si 10.919090552319108 5.960016873003054 8.848254954180852
Si 7.158307510480232 8.6513289682853 9.88664983307141
Si 11.952794980489942 7.310492085211356 7.043037170745485
Si 7.23338787952838 6.321680376363927 10.764932154853861
Si 8.41698877465877 6.0584128183731725 8.376880024080632
Si 7.620694167067261 13.295311043777296 9.143970187523921
Si 6.998476260975554 11.243015432655705 7.8643199345001875
