23
Energy = -106.70460725 eV
Si 6.867732495478115 6.60831616888021 9.539467658685123
Si 4.789230548343346 9.410935617216838 8.58366217862073
Si 12.415563092186567 8.016830082551486 9.028730569971321
Si 10.46733764825185 6.63397362888289 8.68590533974963
Si 8.025127586436026 8.754706599175316 9.477194168461214
Si 11.782742871950177 8.731319689676107 6.5597436504720275
Si 6.846524174006905 10.310958561481165 7.6681699343422
Si 7.216378448316659 12.225454756532326 11.34940202113309
Si 9.520777041712261 7.467644093206916 6.253995637826837
Si 11.536709989489731 6.147637315648089 6.581205236482701
Si 11.675825782799873 10.023105397114382 10.420002060481664
Si 9.090245502548319 6.3364258473413395 10.594466191008527
Si 7.322351565898814 7.757063739127665 7.38842079327022
Si 7.717596091461255 9.865900351392925 11.60963501101271
Si 10.476964624910266 11.563429542553871 8.744667801656027
Si 5.753442124074924 8.492294759233555 10.805060116474781
Si 8.16067929091695 11.388712965573403 9.380471153580572
Si 10.251385973204712 9.12097434992095 8.684991323856705
Si 10.116654123576444 10.386109253139496 6.571772172214903
Si 5.654817354813477 10.947365368036454 10.07243797962839
Si 8.035469931852774 9.457996100841626 5.69033126038397
Si 9.787820595258658 8.623434271256635 11.196369654310265
Si 13.632847014268602 7.4584641594945165 6.972466257800874
