29
Energy = -137.92197317 eV
Si 11.173992136743882 7.574928554535446 12.51672947520054
Si 8.990295234972445 8.452923984145999 9.13842067883965
Si 13.43746781493835 14.572158440897113 9.7277090757222
Si 6.500005245398099 11.154643895230638 11.174497234458354
Si 13.293584784453374 10.768860095762987 8.299764613854844
Si 9.037339395551719 10.796653498445684 14.527873250702042
Si 14.453767713569366 9.182029267126484 11.198541193319077
Si 8.909605333329644 14.571847469321172 9.72771081475852
Si 8.076993983336891 11.956652176339073 12.717895965784422
Si 13.310164193804003 10.796981700762188 14.527918759941057
Si 13.357607338670425 8.453276151110698 9.13850033901009
Si 15.847480414720078 11.155274655560108 11.174598379052641
Si 9.498096685503198 9.192939303727977 12.87995538276554
Si 13.098440434370207 13.817754446994455 11.969080601640066
Si 9.054039690327729 10.768585060054155 8.299708579899976
Si 11.173508729821599 14.017269937924755 13.447547047449925
Si 7.894020646511106 9.181595226484603 11.1984426004744
Si 14.209358154735442 12.301551599242767 9.889548116759624
Si 11.17360592241302 13.684495357142211 9.626011868766085
Si 9.248544300802836 13.817547717865438 11.969152681257624
Si 11.173654656679542 11.637796012951945 8.492413108002198
Si 11.173698212261666 11.64072304081972 13.975474852913951
Si 12.849610135245026 9.193209846702414 12.88001115954535
Si 8.137997795027562 12.301136527519043 9.88949352438808
Si 14.270320075892235 11.957106912908639 12.717939117025955
Si 11.173976816119014 8.16555249446803 10.179400857498987
Si 12.408882825422614 10.346036933721043 10.541774635855916
Si 11.173547764876757 12.233050545014803 11.670600243298102
Si 9.938783519669713 10.345809102388595 10.541675796982648
