24
Energy = -111.15627556 eV
Si 11.362987823869245 9.89301971742319 7.48450842317632
Si 10.501517344346349 8.088832388652891 8.754211487833063
Si 12.950144460785063 10.109490203187146 12.067858100752234
Si 12.22451610226025 10.153316532950035 14.55667382687217
Si 12.304671732275315 12.076578456475907 10.962080830686837
Si 11.514371500717512 8.505025841536469 10.946075214821036
Si 9.598979651842907 10.964711128434592 6.183095646213535
Si 12.543594353980959 11.7085001930358 8.581646104984245
Si 12.27824751110971 14.414322810042469 10.500236120108637
Si 14.304849407542045 9.468428881231926 13.832382088907579
Si 8.946785124565514 10.09843835081765 8.373396962707071
Si 10.577339822773471 9.942706804205228 12.85342780225559
Si 10.627155900798735 12.873382006826814 7.396498716583987
Si 10.401243525562137 7.330448352908981 12.680200290223112
Si 10.03296002565463 15.130715233688752 11.455512044511691
Si 12.563091066421686 14.151042539850536 7.992761950392781
Si 8.126856817314797 7.3130036890168855 11.927379253672017
Si 9.02733195923152 9.178351461692476 10.694310505227204
Si 10.271259629172087 11.626672842694177 9.53754374266376
Si 10.064713276973633 14.130125109690015 9.321269483616316
Si 10.59785047567753 8.255369143744613 14.845151891143844
Si 10.060083248630738 12.716579374821597 11.663721549714644
Si 8.469944466386476 10.904770198303131 12.280273306532385
Si 8.443662459695867 8.860405901717963 13.753849978348098
