27
Energy = -125.53895846 eV
Si 4.946926843941094 8.165945138013123 11.056705501894925
Si 10.87370629120021 10.71774759595028 6.146005739641983
Si 8.258087950114689 7.184189468369912 9.858605788774888
Si 7.477952253103897 11.56539916853156 10.559581052160942
Si 12.63624628335742 9.915454972789334 7.810028103708744
Si 10.44333598251853 9.783720112001609 9.01588132158338
Si 12.024142902526718 8.51041777970285 5.836086674366908
Si 6.4978342627296035 8.03831124931207 8.01790591244156
Si 12.070383639944966 11.65321598548827 9.413548934032733
Si 12.25576096750483 7.989775375471297 9.16891575261447
Si 7.315194324834106 5.580461255963481 8.255114441163174
Si 12.622846411751665 8.189436916592467 11.599393249363798
Si 6.818224936943781 9.30612418691529 10.06460225223915
Si 9.642034927619244 8.683791902108752 6.735505229928749
Si 11.601205452643693 10.325434132435724 11.350630424751705
Si 8.675635750075031 9.5595754251875 11.734675838397122
Si 5.303299082524536 6.454380278209982 9.337354590648118
Si 7.231412890658747 9.304230443140519 6.152891244389927
Si 9.687112886156626 6.676686083603617 7.8849709829317725
Si 7.101976722801125 7.646488607318248 11.90386904144967
Si 9.522494500482242 11.78325223811586 12.076313220028261
Si 9.732693295941921 12.167983434760588 9.592101795001703
Si 8.69862648736683 10.763002730897592 7.5542884355522375
Si 10.382302792220711 8.141322242897157 10.809973805289047
Si 7.815036711020301 12.810354074000605 8.405754292388224
Si 7.948164000070572 6.909080262261572 6.142291790094611
Si 11.995577277727065 6.509344152592742 7.310418667611738
