20
Energy = -93.8843035 eV
Si 13.368765508712613 9.807380870857253 6.979592929194397
Si 10.995326859478475 9.720216706456194 6.753409526825882
Si 10.189006334642327 7.4559870469596605 6.725969329817377
Si 12.353334708122972 7.828039495597939 7.705665108837476
Si 9.998170211020005 11.091939754070832 8.403307466234171
Si 9.465847616933116 8.552563048496921 8.69581877191535
Si 12.413252900616554 10.18469866496495 9.2047108467495
Si 7.79070248001003 10.296852089160682 8.735505946267278
Si 11.71113427325973 12.486506418268469 9.308046662961036
Si 13.279642338163239 8.006553436656183 9.945914611905724
Si 11.033411252621727 8.359441802410336 10.430368858758781
Si 8.281838191354622 10.904743150759563 11.000836781141285
Si 8.252425064131442 13.29433572936026 11.521614380097061
Si 7.980866478345058 9.298110054413037 12.838262677681309
Si 10.42577303616449 12.19596610823475 11.311396436343356
Si 10.262002792994739 9.863255006747837 12.046501380772664
Si 7.385976781618086 11.689653038952976 13.205455598138341
Si 9.692963342007591 13.066536995006647 13.531565007525202
Si 9.557126097533073 10.463250095003717 14.329040997876502
Si 11.593150412861906 11.46468716821403 13.357733361549396
