28
Energy = -130.62426162 eV
Si 6.961872107920965 12.580945456072808 9.765254105789896
Si 10.200951674045179 8.753271643041217 7.2404475383640206
Si 8.269397418734433 6.491453183481397 10.132824486397832
Si 10.461710291438383 6.829050167303614 9.067133957838545
Si 11.001349306052578 12.91166458249329 9.417749638943018
Si 13.853309893542681 10.43585574424934 10.559309390904408
Si 12.495844273240087 9.649368611138941 12.651200300852757
Si 6.673535386223863 10.517764919554585 11.293584659825296
Si 10.606988505151916 10.419934283409981 9.488725128177018
Si 10.708857177660597 13.54929428692092 11.737853195860065
Si 11.932517805494188 11.544475239696677 11.29615274001527
Si 8.993008984968812 9.730342421849562 11.438510323855695
Si 7.978624096824551 8.39232288917218 6.527399426278516
Si 13.64469489806112 7.827414511185577 11.041630016490444
Si 12.097945893788063 7.297692744091702 7.356990436728596
Si 11.323907219766149 7.596487524180669 11.168885523227864
Si 6.937603939790728 10.484839631584375 6.247729649583704
Si 9.018511382405798 12.0386974654568 8.341158148736831
Si 6.7823182995060005 7.405975028177883 8.536549953487436
Si 5.255580821762644 9.165891724195022 7.609043586856362
Si 12.476627470416416 8.859987866353976 9.173723111735857
Si 8.75674368448338 8.696995252382496 9.251925770243005
Si 14.841892843470742 9.338651131602147 12.490530402982882
Si 7.029432131924901 10.314025311952017 8.82560282925817
Si 10.332635873954809 8.567436177911857 13.036193943474862
Si 9.341395815634565 10.82638780777609 6.221443248094312
Si 5.329532478915669 8.873310451255644 9.99466642341793
Si 8.977562729346827 12.104760269105538 10.972421876347617
