29
Energy = -133.50494809 eV
Si 16.115252563941294 16.33706947203097 9.242774200188995
Si 15.166330056608993 14.109465474900707 9.575054905706438
Si 14.048979061236398 15.68588002830652 8.159860073187122
Si 15.959953599562237 12.128691845403297 10.646477098863175
Si 14.755482364967705 16.038934340470764 11.175854297884198
Si 14.214651312071966 8.996265307879858 11.802098905549656
Si 14.32643157946213 7.860822190596484 9.47362168039486
Si 12.738211000657675 7.252504761898898 11.18636048473855
Si 15.12284086940089 13.856436418189888 12.128803384148439
Si 13.065467831421238 12.891113653576175 12.960622048233613
Si 13.339751247482175 11.63629164703672 15.058835262028145
Si 12.887049631752115 15.08552256077816 10.114380720537254
Si 12.619656749709558 9.417904649256588 9.77629523511723
Si 12.83054868485371 10.375775463257934 13.107777983741249
Si 13.691713460712046 11.39983232640205 10.836700516478517
Si 11.95947750628442 13.043270531221788 10.860725554663103
Si 10.630881562351206 8.350930898759753 11.002436471705929
Si 10.505931952810695 10.078436574378138 12.668794899064347
Si 8.870262243560791 8.251889523084378 9.438201516998932
Si 9.973069338310145 11.81054243111144 10.947348165161431
Si 10.38350757176686 10.130757638638867 9.096792205133708
Si 8.464949096823272 9.912433457292153 11.090736414943176
Si 11.183391862010046 12.400611475057055 14.556634752868565
Si 9.15744445651438 12.326463302032856 13.13241391049801
Si 9.513957639542573 13.758746525760305 15.303847434254012
Si 8.263718364235546 9.946489800669994 13.579889618323685
Si 7.713311712012765 14.224273320574913 13.744429151709554
Si 7.451933097868752 12.978810891314334 16.011418056193982
Si 6.876925527961423 11.848957381416966 14.005891590036574
