23
Energy = -106.27795205 eV
Si 15.806724541588597 12.866293301409355 10.312555870156004
Si 14.908381614351647 11.424907583251445 12.06473718293009
Si 13.876205371202737 11.92872128656617 9.360738082332425
Si 13.862794094546857 13.811914880013958 11.36631742548439
Si 13.179835298988248 9.644330951997853 8.879903442141353
Si 13.549069714446434 12.676380866783282 13.528712858538166
Si 12.009623779245212 11.824333436036284 7.948958425868604
Si 12.797847425516784 10.523765978109815 11.155831440666095
Si 10.79282172728794 9.766653091050175 8.532427305531638
Si 11.791502165530158 12.64339574223739 10.787112502918632
Si 9.94140448888547 12.154407707735983 9.392083372946875
Si 13.286979001053737 13.978237869014402 15.429917761045628
Si 9.80347239820117 11.505980418464 7.082533415641396
Si 11.304090067396805 9.029927831003267 12.379773376349142
Si 11.54174278666969 11.0961211771761 13.641483787957089
Si 11.3464818818828 13.32197569799039 16.92571230242761
Si 11.039658585828368 13.590200439516709 14.666173662019494
Si 9.687603936131673 9.812743846408328 10.691548812285095
Si 10.234671708083146 12.841502307909948 12.560641030542438
Si 12.427961668997952 11.527733423470147 15.804430137343157
Si 8.333578011598496 12.075687425440792 11.223998338936958
Si 9.313323465522389 10.466967152424433 13.059032772816204
Si 7.47194206523132 9.821079964432593 11.620733802851381
