23
Energy = -106.22536315 eV
Si 11.476964101556703 6.4289693241603185 6.5207364973214785
Si 11.331349528455634 8.811862457458329 5.8850606651787984
Si 7.3663968588448645 6.868732827213832 7.934723348212268
Si 9.688317997541597 6.3002744494710905 8.151670621216148
Si 6.500607397560245 5.4879322241966735 9.741307009719765
Si 8.985256042718145 9.250004849204673 5.956961051785518
Si 11.882834946082426 7.5865612558021205 8.535846036908625
Si 10.48647063899887 10.11099633915546 7.715266809542771
Si 6.731046298649584 8.493570252463005 6.225621243199083
Si 8.960092699051541 5.131064431935438 10.127242707038759
Si 10.599479984686875 6.835484025340372 10.537449679989718
Si 8.544454925308717 8.823071815467085 8.69872763963214
Si 10.883568127570582 9.423633327242502 10.039283118005637
Si 7.555817120380156 6.441575325152148 11.786424917904808
Si 6.8864365214537315 10.458063501166126 7.572546998840198
Si 9.002710814102818 11.598419872786687 6.5353993250327065
Si 10.185924695685078 11.86086673361629 9.601251903720007
Si 6.6212459290907235 7.944472617160781 10.094136893506466
Si 8.88072752362027 8.395400444410317 11.211457833366552
Si 6.893372886345139 10.431674872834535 10.036154416544717
Si 8.06136447196233 12.374091503223397 8.587078087166782
Si 8.805112739092152 10.807697422083265 11.431779716298983
Si 5.626375169342831 12.057698829815857 8.833378088552855
