27
Energy = -125.52340883 eV
Si 10.699748441828968 8.431487721091132 8.848592494824072
Si 8.149886330547595 6.593780464888764 9.611326693911197
Si 11.522215908372827 11.904604872074149 6.352235329977194
Si 10.6033039771871 6.102045207287709 9.227252636726226
Si 13.474932216358475 10.631183740910608 6.457649307776941
Si 13.631317168779084 12.407652590096761 7.995395074336739
Si 8.444874776032185 8.929124941411628 9.170597949655093
Si 9.736673601548802 13.4160811032777 6.607007509686858
Si 11.182564216634502 7.4162810061657725 11.213022547647615
Si 12.030302716005156 10.415759176785487 8.40387901103992
Si 10.081274080472026 11.920804686587292 8.464322524994028
Si 11.44065690851051 14.016070990900289 8.115766690856244
Si 13.40542955328906 14.267490746361355 9.411106136467547
Si 10.007839006999706 9.499019573799869 11.083756847863954
Si 12.016883996730652 12.359969517570823 9.959460349409582
Si 8.398472646135806 11.155725481988302 9.94622662546103
Si 8.862571056471493 7.3787888610104595 11.748091517250332
Si 7.1613323236713695 13.039405331861401 10.565326748549635
Si 11.162451348399326 11.323931762715013 11.93404155866352
Si 12.91662035047521 10.711763584349969 13.521254839541003
Si 8.723910147970294 12.02331842737501 12.275314146555141
Si 12.358362165828764 8.367723607425532 13.007088002624474
Si 8.785774052201692 9.721251346893629 13.260784642797692
Si 10.861975414191383 9.957904219549258 14.392640767756273
Si 7.4230475605745125 13.865999865719399 12.678163107127107
Si 10.467801993700999 7.709439917492032 14.321628859018247
Si 8.076352642591484 7.5290861794873 13.997344207107423
