20
Energy = -93.94012232 eV
Si 12.288285945221515 11.148185981999225 6.410842939990507
Si 10.016389154151238 11.013699588551113 7.090844901947716
Si 11.496811281554262 9.043920475914348 7.433181187572852
Si 12.090942307460438 11.555289436221914 8.727107929801788
Si 9.118747315220219 8.820583164610218 6.994402601266664
Si 12.01360418725003 8.876943892901497 9.836725200064297
Si 9.700952411767691 12.312782407526644 9.072741552191431
Si 11.39908293760802 13.753701785107781 9.746024901124704
Si 9.513120935587539 8.752927528550982 9.31762118473199
Si 9.190291850538397 10.663788551025107 10.750742337363633
Si 10.600619754743184 7.183889170811935 10.731052973786843
Si 7.681555278799957 9.848309886534347 12.381000870892652
Si 13.489070990575392 10.5676598307732 10.465345108468982
Si 9.950091012267169 8.875419445338403 12.371434604476875
Si 8.351647140569078 12.236574190979091 12.87255783802691
Si 10.399180396940919 12.70601952103328 11.655717280334965
Si 11.638752309097443 10.692664594025779 11.92477151460164
Si 9.02256757702827 10.443034800177134 14.437442492620091
Si 10.820688899755147 12.07554041825364 13.974463845307776
Si 11.48359384015979 9.695060855959605 14.071974261723382
