24
Energy = -110.28659203 eV
Si 13.558616293587248 15.250977704922603 11.758199016553284
Si 14.716664059440811 13.173815172904161 12.364101436404129
Si 12.207687301601673 13.614857577961297 12.842880339718656
Si 14.450420987283952 11.90235771486376 10.320125433876221
Si 12.975238006577682 13.665893602428028 9.795300233244552
Si 11.612716541559017 12.689831175799558 14.92614109995664
Si 12.958246456244563 11.314843914442212 12.339511911519422
Si 11.999388932870326 10.464061120151957 15.630842988143623
Si 13.220669857562005 9.361505941591993 13.651414172662593
Si 10.655610602969945 12.33755718606807 17.005863487061337
Si 10.8106879370838 13.361014497582275 10.90950893880824
Si 14.777026744994323 10.086455793250158 8.891467206264204
Si 13.079290099069258 9.725762036896073 10.41418836901701
Si 10.102598100765569 10.021355606920855 16.945490342479196
Si 11.996441973708414 7.978460812000022 11.797328178660136
Si 9.568425696124041 11.306963710006038 14.89484223579071
Si 9.591910714441008 15.286537123385246 10.166539980942343
Si 12.918929614589748 15.12610870054357 7.874912367009664
Si 10.773637917485242 10.985482398415654 11.027757886936715
Si 9.666928745408526 8.71994812959879 11.703975422360033
Si 11.912533650658695 16.009326579200433 9.90727566069777
Si 10.84414322886673 14.17978375343225 8.476070572885185
Si 10.897512646907137 10.030724358499974 13.288221124316324
Si 10.827134321657004 9.071541284574353 9.612870564250391
