20
Energy = -92.66885101 eV
Si 7.7298534111428 9.164749869207482 5.926465610024723
Si 8.496001647789623 6.783979749208582 6.51751227937917
Si 11.641668049979993 10.745610462600474 6.914679396820496
Si 12.342638543322016 8.420300232427659 7.674395424982729
Si 9.809728661820353 9.145270651217158 7.119678113880973
Si 8.310364975615663 7.43531716700406 9.355301502025776
Si 7.514749071375566 9.801208731089664 8.335365551070138
Si 9.990991672366853 10.892732715107682 8.746205703121111
Si 10.75283562824557 8.416349162369915 9.8323803592781
Si 6.575742078723103 7.62697075066609 7.6253815023519635
Si 10.403776063772328 6.805163511097764 8.131305332563736
Si 9.372125274295767 12.391751209937876 10.463284373429891
Si 5.782404529070579 8.25600091093989 9.792179084848453
Si 12.5282247199574 10.23485452851586 9.16692028734522
Si 5.631471494669509 10.648674751085402 9.518712010089239
Si 7.013717009067534 6.689783058951172 11.173041286289932
Si 7.714456043718627 10.63157518013949 10.667786612868417
Si 10.863642169652897 10.593564533577041 11.0353068497878
Si 10.781061724821049 8.44683703945123 12.173247515782451
Si 8.452305909538254 8.577064464351295 11.538609883005424
