27
Energy = -126.67240379 eV
Si 11.768322946892797 7.953115701792352 10.517915503814889
Si 11.48897782357992 10.087985563028054 11.996865606499156
Si 10.636460232894299 12.545572654603772 8.798559280752624
Si 10.116813625933306 13.359339309458257 10.979976334807125
Si 7.2994123612765085 8.2185165009727 7.003914092143924
Si 8.994491522077022 11.331996801955606 10.119831321957395
Si 7.664257698719799 8.51813398879081 12.715315603794146
Si 9.491036713373136 7.078192670982142 7.266463811834541
Si 11.217887110742607 10.053412443358143 9.41710462788393
Si 10.644381062349467 10.035297716009385 6.807089436829595
Si 7.3341041949077175 5.746861736428809 7.421720433520948
Si 9.969055854991632 8.057927717259892 12.326729619834575
Si 7.787361373052168 13.557134773684089 10.411056838527749
Si 8.972056069298665 10.496340235970514 12.305889840800882
Si 12.25635704082531 8.024122710106347 12.904786798362506
Si 8.378527352571952 10.665841235647834 6.7214381593359525
Si 9.95468327990624 8.343802688679217 5.257622993871732
Si 12.437694253425569 11.220458875617382 7.805941549778206
Si 8.259170504326528 12.585431512728423 8.233725505967397
Si 7.402262409928631 5.855570928119935 9.928441832124065
Si 10.653298402888252 12.077479700647633 13.045424172216226
Si 9.428923822001162 5.01574337018939 8.499457607159153
Si 8.998768084599075 9.160535116483574 8.637987610310457
Si 9.579104366511913 7.067522549389417 9.813499134725273
Si 7.443481148849774 8.313697668665908 10.284395763879441
Si 5.783761434682632 7.419648800909743 8.77583952866018
Si 7.7081050101023765 9.263772334401988 4.914056314929926
