26
Energy = -121.26863464 eV
Si 8.61263783255502 8.735445119097841 8.145105550782818
Si 12.057801973563988 9.183325896777903 9.860235223646056
Si 10.949389675114249 9.091883371702732 7.725905820259041
Si 11.634223175543934 7.935046894726966 11.878659691352993
Si 14.290980857640255 9.926253903739962 10.063947408203385
Si 10.903697474908093 10.004172862432931 12.882836388749489
Si 13.394463213896605 9.451419673731783 12.162300392726582
Si 9.199223830981305 10.999645707899356 7.595130233106888
Si 9.76787366977538 9.982553187840978 9.83753898357674
Si 9.01176526634947 10.278266704253628 14.494757155386374
Si 13.400446691111096 11.854864362246289 9.10190729394623
Si 12.964886919623284 10.940540447734168 13.942988696345159
Si 11.62549916712628 11.494576802645872 7.42116310279902
Si 12.647310967370416 11.547622004263996 16.291616862892294
Si 11.29333298169611 9.62114554939061 15.362621553589742
Si 10.093985324815149 12.005680294357637 11.787328407012835
Si 13.615446474108067 14.22712706134576 8.529085232221524
Si 9.109761204596905 12.510884654321238 9.708858068196038
Si 11.946704168084246 12.859477437448676 13.034289024149269
Si 13.782531890402078 12.481597491349614 6.760133497237478
Si 11.381673585800499 13.107267514485727 9.132028845301342
Si 11.76885744260741 13.98573903391651 6.926607806865671
Si 9.470472276481393 12.662870822052373 14.042036712883885
Si 10.106884863028938 11.597398747768981 16.257666183309393
Si 11.499814386399876 13.462582761553751 15.272635697549406
Si 9.282103152090917 13.945924271758964 16.03495173624467
