28
Energy = -129.28377377 eV
Si 8.7857857199727 12.950752099193785 8.661370916484314
Si 7.151915000941106 9.887776113990125 8.103557303762205
Si 11.078869810941265 12.949784362608705 8.087619739883213
Si 9.449629713851325 6.611652483363119 9.919867899177529
Si 11.720863860737158 6.541564033975565 6.313260433047047
Si 7.943847747457517 9.136757566818398 12.958015762777752
Si 6.491647081392192 7.726694113633112 7.206131949488157
Si 11.943102126429755 8.600184414768522 11.792759946501036
Si 12.190841405832458 14.637474764306749 9.340579126346158
Si 5.53803099787423 6.188713746683218 8.831478828684928
Si 8.617425065870941 11.00504612316637 11.690769521394705
Si 7.275422231670887 7.829804053779185 9.526089288286657
Si 10.228400637541489 13.745811027042082 10.346876440119944
Si 11.758521290444591 10.51341492394584 10.468688373532585
Si 10.69571992149139 12.210649347871282 12.141657157665156
Si 11.8434489445549 7.360252733490068 9.714711286954923
Si 9.250350102893318 9.736147121701956 6.981109850636779
Si 11.327910763775952 10.566062956380778 8.052847155633557
Si 12.371029347631982 8.387821671151947 7.659317175306445
Si 10.06526983261234 7.58137512489831 7.701180072406246
Si 8.011181181617332 5.921425306951742 8.118408887049524
Si 6.91527352699934 11.574286987078178 9.921337148752956
Si 6.388954205305706 9.41184425885977 11.161666130759333
Si 9.273182929792897 10.451403836245413 9.384224075829742
Si 13.274601147014563 6.186361187472035 8.260007244783077
Si 12.587828327339288 12.668596272796472 10.71476714730824
Si 9.58443588955312 8.577678011386071 11.337540689699598
Si 5.2709829403875235 7.326803181106815 10.84602836458192
