27
Energy = -124.94513998 eV
Si 12.97094773379339 11.481474541769675 10.456843902978335
Si 12.149486132929413 14.516826514228551 11.018692531199093
Si 12.914347665554446 9.157352458641409 9.962162314269593
Si 13.054733391288224 12.6378471860767 12.584091022123163
Si 12.365123848780959 9.183721538645067 12.421629372708216
Si 12.846796459317297 9.277324108372506 7.276639570424768
Si 8.785049870800133 11.467677251492137 10.539806826200444
Si 9.553814443578245 14.4992181172884 11.041633036615876
Si 8.858537970832884 9.153306001202703 9.967793564356315
Si 8.636820688166846 12.660303390190203 12.64201272489842
Si 9.44665038401634 9.177241597370756 12.44576855663259
Si 8.830624517412897 13.241511950701847 8.887878637788509
Si 8.818130277186228 9.26450656471492 7.306662792570873
Si 10.863726763273236 12.547059878769915 10.098844643803307
Si 10.874034534397948 10.114498615687875 8.867900321445884
Si 10.839492289101628 7.999609369801181 7.522949488472249
Si 10.831574667967503 12.482446603729798 7.655844410424294
Si 10.820515649925461 10.35748464194268 6.429503857200563
Si 10.885190616385827 11.217714270725605 12.958453602518341
Si 10.857478598852179 13.678053435329685 13.083498653285972
Si 10.882331592453852 7.738266584694866 9.962145072095627
Si 10.91566763365149 7.319501904208853 12.771647580039284
Si 10.947303940129606 11.172414678999473 15.554825768066499
Si 12.855252793664848 13.278166153407 8.833419924916527
Si 12.974100123493958 10.5513206833923 14.33739513820017
Si 8.8930437150606 10.529658648742348 14.392734910041124
Si 10.932185757984383 8.89845543005873 14.582183836724225
