22
Energy = -102.30908157 eV
Si 14.752531371948539 9.654658599296235 10.625960999824331
Si 13.348743490537167 9.413226505549233 8.364410315192158
Si 15.629470680757496 10.492066928970635 8.592681477642541
Si 12.218232285688421 10.148357185667836 10.4240417266694
Si 14.221892373662307 11.912834599988148 9.798983758148813
Si 12.172680837271344 11.635631082369313 8.243525891892114
Si 13.917125645801411 13.67763739790123 11.442512678043304
Si 13.582220512193215 11.152934331896576 12.100597030062339
Si 10.409358055747694 11.955124925423041 9.752555261244408
Si 12.403966880531549 13.784776213413997 9.418519000152402
Si 10.588019337790486 9.78986514733046 14.206233966359317
Si 11.53730452219839 13.475695356247321 11.871998588628575
Si 10.50556445510579 11.47781770651171 12.578446600016992
Si 10.08417212676652 14.259173035672257 9.984996463719327
Si 8.65010792307478 11.254411847266617 14.625008786094494
Si 10.3769646661928 9.15959649783903 11.624654116747083
Si 9.943576735000354 7.6064388887880625 13.440444329034928
Si 9.554696489465814 14.816687938940273 12.269826905982487
Si 8.090096337006432 8.68049350478411 11.027607448941463
Si 8.40595385438934 12.644533796672944 12.687897686324892
Si 8.592873878320315 10.9660778059921 11.022054887370626
Si 8.164027395963549 9.262780431194187 13.432273445480226
