25
Energy = -115.78391236 eV
Si 11.901781674018329 11.318444775068256 7.113248305337365
Si 10.499836208088611 11.86291858847705 9.048156382091394
Si 11.079987546425935 9.129095689796738 8.027423131272162
Si 9.222765268754285 9.823334735877145 9.550824993766483
Si 13.595838088367408 9.707330241314256 8.112656223373632
Si 9.152823942174367 13.845847251272563 8.749676039908001
Si 13.135115251769548 12.0138739829963 9.134569238032396
Si 10.391354030469543 14.116250666057326 10.82645664594961
Si 10.036229545210869 8.275620504962404 11.186300877073128
Si 12.246821330290349 9.473989512366034 10.227589792755802
Si 7.877695586832985 11.97072372038562 9.382760227471545
Si 11.503504845104668 7.066498987170314 9.626316933467983
Si 14.629143560157182 10.293965973673203 10.297726255381423
Si 6.888117058073469 9.909297391411403 8.751424076086083
Si 8.345370541771882 8.79308771393986 12.820537378947012
Si 8.07287253813089 13.567638471611176 11.161299312683497
Si 6.3271504484383145 7.860783358647446 12.293157368839427
Si 11.636405364591356 12.031515414559685 11.16604040079181
Si 8.44216345600218 11.343343912090798 11.963011625299751
Si 12.39677858411305 7.581073642233942 11.747195589393284
Si 6.7469043185219775 9.88244176269537 11.188403680666196
Si 13.67815157712724 9.525879109444746 12.51163117451751
Si 11.30337166496539 10.062989878215344 12.503082025456408
Si 14.025192460635804 12.554331301387313 11.222442591794287
Si 9.459558625478612 10.584656929859754 13.98300324515809
