26
Energy = -121.09523475 eV
Si 9.278110171048276 11.292580021221093 11.873689503316115
Si 6.080176451292612 10.761564842216668 9.510411526044297
Si 11.561561893724148 9.71602416688977 10.624985825642252
Si 8.766508868386532 11.332316099463183 6.397457486950246
Si 7.55603430190516 12.370110017873385 8.150786125329354
Si 9.899455738833101 5.485808428242102 8.209410498010453
Si 11.889187852979374 11.014731370787375 8.60900965364498
Si 9.682479700820815 10.137677809900467 8.40892088972885
Si 6.975326537718771 10.099746164081102 7.201276249086622
Si 9.737318501999594 7.079380743416153 10.096407375858735
Si 13.146913746402724 7.997462090889719 10.086880154639326
Si 9.486036423364066 7.687548813930242 7.594823575267893
Si 11.858903636250728 6.05878297333564 10.25588090424896
Si 7.781603367739872 5.519305409675821 9.662597755405237
Si 8.118044289567365 12.950325610791197 10.588353724622891
Si 12.31750443064277 7.180946283572932 8.033081616262352
Si 5.249108155071051 8.86603985494799 8.073927078869449
Si 10.263980506434054 12.492146900295625 9.772580665859135
Si 9.678704107449809 8.788511981010947 11.909713156519036
Si 8.142326946065959 9.797225951361675 10.141305850251719
Si 5.930585290098117 13.221607236877725 9.604318018456393
Si 11.58938685523115 11.87152695373282 11.704531780320664
Si 11.24233855686279 9.006999901939684 6.744193364080284
Si 7.569522618895874 7.547415063189709 11.135654656965395
Si 12.203289951534904 4.78103559374171 8.239395185587442
Si 7.304644891529237 7.726559626786249 8.644124873534619
