21
Energy = -98.20469265 eV
Si 11.134539005483933 11.389344899805208 6.193604970054266
Si 9.355995982163458 10.337106008627236 7.488735163404573
Si 12.04499909583443 10.341972015360849 8.130039576128532
Si 10.481168184613441 8.565077715458262 8.613790721507595
Si 10.333545577911647 12.788714574978382 8.00151392488273
Si 8.094764250659987 11.976418160514296 8.540017462405912
Si 13.816096666199929 10.816074498497851 9.663806662039875
Si 9.86136482572626 10.831094466374214 9.933059756479718
Si 11.13743262638443 14.362508777868184 9.67181807510099
Si 11.893469726178473 12.152656776757302 10.092139553753281
Si 9.795755497961647 13.102939444017684 11.259996141333014
Si 12.491866587087884 9.845729723607787 11.39895782660135
Si 10.427162046337457 8.693666526138541 10.99961424324862
Si 9.266868335478186 10.216517161427703 12.713949378414096
Si 11.821279916395547 7.557397329552874 12.83541180836069
Si 9.288221796435996 7.833585931776459 12.922190626756239
Si 7.855349277008358 11.708225730546927 10.988088619387216
Si 9.755364496033136 12.474261342969912 13.539891174667423
Si 13.243215934327198 9.421256600340824 13.651531890684169
Si 11.575000558818545 11.083126644626079 13.327143065933674
Si 10.87059318323157 9.046379241025246 14.578752929127708
