28
Energy = -130.87106958 eV
Si 11.209151961801634 9.379145248277673 6.007510058843262
Si 6.631383316680828 9.887602002267545 9.008590565983987
Si 10.534230897942487 9.8429219167061 8.306212936151445
Si 8.12032536631776 11.763873179244692 9.088769853152256
Si 10.660033998239207 12.151566291355406 8.86442041743151
Si 6.873807163020096 8.731812993837982 11.488608755179964
Si 10.064133746163325 7.057337879851743 6.453672109904547
Si 12.332938865287135 7.360272287590003 5.697836777175706
Si 8.923636594826027 9.354260181779404 10.118981065949091
Si 6.494467986461986 8.357889727448786 7.228527797396486
Si 6.471071506092311 6.424423860399617 10.992840137862768
Si 7.229080506815478 12.61548354913653 11.15530449078586
Si 7.527736331812961 7.328948645391916 9.090359471604932
Si 12.058682267203961 7.943011395143315 8.059227730849477
Si 11.389958815346187 11.873001553353504 6.545539395861517
Si 5.6805806930279505 10.73323232463203 11.033655692608757
Si 11.548116679699268 12.301902694180953 11.123501903649474
Si 8.663381426981509 6.569500133986248 12.585114148995366
Si 9.297951917978954 11.451766387710753 11.361736350696424
Si 9.301474434029906 10.995206277165915 5.401477776440624
Si 8.223235984633808 4.709611899461139 11.336149348995527
Si 10.564370808575386 7.940585013444974 11.329198519772893
Si 10.497873002928355 5.618200458317541 10.89481824271963
Si 8.722686788819601 9.173187423272868 6.847014076323897
Si 9.895361956114984 6.97314785179328 8.942385445886133
Si 8.938517059192735 9.16038509964435 12.62513554718257
Si 9.10615831909716 12.807894067499106 7.01038634008226
Si 11.562669332086568 10.00815970387503 10.467510800780088
