20
Energy = -94.1282358 eV
Si 8.529478935650115 9.46176777658603 7.299631493042955
Si 12.587892481886383 8.345379589247248 7.902264076565949
Si 10.746602142108278 9.9343568115557 8.108990944476343
Si 11.316056179982258 12.315809247350911 8.58216325642963
Si 8.147386677701522 10.436407021712904 9.465695684332887
Si 9.058931648540126 7.913334485244865 8.930348651920044
Si 13.16744503016086 10.792476483441833 7.896053536882818
Si 11.484221954286804 8.471065159927209 10.080259559803839
Si 13.056149348588683 11.707340036910356 10.23612731451336
Si 8.911775623905982 12.778007526540206 9.773303278346232
Si 13.87723460538254 9.379283450501587 9.78579794186699
Si 10.501779915336801 10.863627232338365 10.54199096722761
Si 8.90644125927972 9.000977489224677 11.453540236973913
Si 6.968556720344268 12.008466504093105 11.130669027461936
Si 12.54653363019667 9.879531521202212 11.829384695840877
Si 6.55212531526927 9.536254131188807 11.087979197816445
Si 9.850532827665582 6.876560952509997 10.838492711936285
Si 9.164154214479536 12.513259490139875 12.226615432397786
Si 10.18736592571038 10.418719257116235 13.056266187814705
Si 7.7034033529612245 10.63144362260488 13.038493593786244
