26
Energy = -119.79879589 eV
Si 10.701746006530087 12.616988013386978 7.364115849093558
Si 12.145912819983085 14.422007985667651 7.027166055475769
Si 9.97938273220919 8.771745158213097 12.04620235960197
Si 14.05121275384509 7.439141468122994 9.421057431352992
Si 10.252236577120529 12.188958682929238 10.114229296735648
Si 13.151946981914072 12.282639465888135 7.579282493415958
Si 7.970921468780229 9.629055704526891 10.979565434271944
Si 9.252236219757476 12.251429298333699 14.17470623994689
Si 13.154391379960925 12.306509029959779 12.516546405127807
Si 12.727106016147275 11.556470094356227 10.221747955388745
Si 7.679562194762769 11.431903415578494 12.586502481587294
Si 9.424634395737275 10.757496712925564 6.562649818763853
Si 8.922645388457855 10.643192071136285 8.94896861959762
Si 10.809737750047193 9.654455512866459 9.996055270485318
Si 5.830160822366265 10.16735404625917 11.804529208895522
Si 12.905084574725857 10.7029316428155 14.543132299112452
Si 12.930873445789015 9.512297456363505 8.94048714346959
Si 11.65864894809782 7.333728357450588 9.568711725771573
Si 11.82848024179248 10.354737389018656 7.040514108619405
Si 10.784421331069264 12.277823799854627 12.410766478158372
Si 12.582241386106134 9.863874103144619 12.442934935451587
Si 13.064619588046956 7.6910982326006545 11.612065054669278
Si 11.876191119668913 13.700378759149345 9.3352001620476
Si 10.979835967067576 6.593406582355714 11.759445207639365
Si 5.541884203033619 11.55544157579981 13.563603743895879
Si 10.502627589638665 10.185954925087536 13.886879559515402
