22
Energy = -101.54653665 eV
Si 12.848743126990627 7.193034658876618 11.211023645244367
Si 10.770490608298099 6.338610078573042 12.083382338765222
Si 13.175848514491847 9.302632341553775 12.103615131404974
Si 11.697772011241595 8.025464912793588 13.604320232784785
Si 10.865731665336922 8.554373221833199 11.227565801497404
Si 13.816784074216914 13.038937190139611 11.098974264477587
Si 11.901964315145218 11.7089962784502 12.881121821248893
Si 10.29516379334134 10.069696486706103 13.2675693687582
Si 10.508873745060557 10.920436007779452 10.807260790948396
Si 14.243612751361987 11.501472933853776 12.972817212055837
Si 12.901166323243372 11.007684551594487 10.38509916828496
Si 14.913369081338162 15.10736429737071 10.726555461417668
Si 8.313920252389286 13.400712049038173 12.882000317277996
Si 8.419048680107434 11.131559226278142 12.010000948756788
Si 15.903950848350709 15.793921653112251 12.810783076916353
Si 14.34271960764681 14.051522807480856 13.385027568419275
Si 10.655702908564075 13.68906838231418 13.254457326724873
Si 9.647648664677188 13.351501085875144 10.930907176729692
Si 13.572740780785658 16.427946754046598 12.472977846068815
Si 12.904135665593758 16.351795907454786 10.200142470512201
Si 12.376702070942748 15.155040592109174 14.149219240028614
Si 11.959472123645634 14.498284714125816 11.381867302883139
