29
Energy = -134.82668684 eV
Si 14.85185264129817 15.934175952764585 11.327017517160096
Si 11.321869158338465 15.75703689522978 8.599295394444482
Si 11.590915736712981 13.393255453666496 7.9430594403649675
Si 15.374091518236856 14.064240256000868 12.765362407469656
Si 9.79217637775628 14.242048660163169 9.540088418235154
Si 12.995495079682772 14.590681933281225 12.710694938974399
Si 12.710313301018747 15.460392334244972 10.493369357502424
Si 14.36048664945978 13.661034775127757 10.675993552217738
Si 9.31347316472792 12.60231343894209 7.785116034234698
Si 12.823185754898692 12.201964441311084 9.597731747810844
Si 12.169134330553673 12.383166876733751 11.87679963140552
Si 9.896974698652194 12.825986154464648 11.45838734114347
Si 10.260115277991591 11.388297460722002 9.574299327484095
Si 12.28340236710491 10.34120983392806 13.167745408445855
Si 13.664200697385338 9.992649873205549 9.41530411911776
Si 10.149136630544412 11.86244372333855 15.038515846890434
Si 11.409572460581138 9.249628380213524 9.829270004413898
Si 14.528483590566134 7.265152941106331 10.242467294719923
Si 13.052104543092588 7.9446202387018 8.284108574562806
Si 8.663653220787682 12.901147039685961 13.489274937192056
Si 13.387020029247578 9.041116278843813 11.498067899562155
Si 10.397486665820487 8.970856341995889 12.769721850196147
Si 6.691938897327521 11.394880102196883 14.025440622140877
Si 8.702500103803052 10.492278329224936 13.287375972796683
Si 9.966980322772207 7.625624505232698 10.821651260838404
Si 12.28707982888046 6.933696629884745 10.56958741208531
Si 8.265271747235373 10.640085314010268 15.783531438993188
Si 12.16309583081624 10.73088575069722 15.53766655528943
Si 10.187085327655288 9.339423814584995 15.175146420204285
