28
Energy = -130.53630313 eV
Si 9.85039705547451 10.297148308342765 5.304772794134752
Si 7.3248240744594195 7.850722335899795 11.838527346752945
Si 10.844124953147189 3.7583922351920482 9.343256745507594
Si 9.165046515851962 9.040996431874534 10.498140298476736
Si 10.46927303677971 8.8211798089143 8.319493264010607
Si 5.8416577119591 9.546547182469313 7.636342116497311
Si 7.418039702793669 12.027688386618262 11.937558181813682
Si 10.923844069027972 5.705554141043818 10.795124463239247
Si 9.18133891499303 10.881861516898105 8.609973482841852
Si 8.070153688213194 9.376644787122107 6.706547990975819
Si 7.245468862265356 11.733354832337033 7.471709399743299
Si 8.512825051718533 7.419378406573625 8.070753242900848
Si 6.930300538845929 8.47496447244652 9.528275947642557
Si 5.064198653302295 11.696248188020354 8.363745921756712
Si 9.63304444274304 7.139283284978209 12.102943867178745
Si 11.195951417039213 10.040970713025594 12.063093680303876
Si 12.223118545043004 10.92879530840776 8.916287887079958
Si 9.568691603290542 5.497876970696088 8.811854108673863
Si 10.82017095788592 11.905234664830461 6.733830305545553
Si 9.573441503706173 11.473013487553478 11.069447476892561
Si 11.449794057627642 7.949740074871527 10.30410883944382
Si 10.034989162093243 8.877303299811125 13.810127431909349
Si 13.10844395561503 9.63923467076737 10.752953744648604
Si 13.215982005849442 11.405205155014817 6.846299090612955
Si 8.119290419330364 9.905151575158259 12.6913600906043
Si 10.659016701794622 12.738109260964272 9.094737770771298
Si 11.817827859379907 9.516373870173192 6.47944395094984
Si 6.703807278926332 10.897370601728374 9.856854126538376
