24
Energy = -111.55980974 eV
Si 8.028503607115402 6.570944554595476 7.535533602289272
Si 10.380878198666563 6.894869909681524 9.29522623892703
Si 11.889393205418573 8.035223840484136 10.871853553725552
Si 11.114813462394638 8.13056191324696 7.427169873872201
Si 5.672270787773258 8.710689742214118 6.440571428968628
Si 8.203846014513834 9.874946268430215 12.146763101057575
Si 7.852870952410359 6.297998627614684 10.119209912692975
Si 10.47572681327 9.932838515659386 11.150890824684572
Si 6.045192363708853 6.036482191400408 6.229793446133379
Si 9.200991088817519 4.8857909960717665 8.77434714717596
Si 5.600749980650692 7.096742242444338 10.657940596514223
Si 5.660290544046419 7.077025990559734 8.279012464046792
Si 10.898881349408816 10.678923874453854 7.463157257574896
Si 12.962248321155204 11.664665881418511 8.247514679700929
Si 7.078646777200201 7.727853537529474 4.789315364546079
Si 6.555878080765044 9.3657009330183 10.30585060692993
Si 11.122874475169851 11.831504676489697 9.771155035648407
Si 9.004375802859313 8.404386088988426 6.2150700154289185
Si 8.619623265837232 10.778823880339434 6.616345394336766
Si 8.831902779993587 8.537978872347823 10.123169311726047
Si 8.978937429400885 10.959889342232113 9.174175168878728
Si 7.525773623431284 9.116981464896938 8.083719880296684
Si 12.361102534345617 9.486978923243615 9.036717861376323
Si 7.24419979699506 11.645772919426784 10.7261120555875
