25
Energy = -116.34111488 eV
Si 10.94545734262736 10.084575937395478 6.454446559167307
Si 8.618680880587357 9.59867914936354 5.865387497550509
Si 12.787565486100682 10.941099972483684 7.583922705369642
Si 8.129450961777698 11.464095736238264 7.5688933876972095
Si 8.051889163605601 6.894349179788165 7.510450268122883
Si 7.559769609312922 9.134304498330797 8.09405157191563
Si 9.608470491666163 12.071004406619986 5.750656664778058
Si 10.24122572661824 7.813741915022732 6.820371075695762
Si 13.01993671302959 9.936368422405897 9.836579453649227
Si 5.532043202389859 9.790147784774682 9.312353040210299
Si 10.73042436074407 12.141784861518946 8.001989464645082
Si 8.13968464628932 6.776682789450022 10.01465646993813
Si 11.189675405156475 8.772679476987806 8.828607433505054
Si 11.028877485248094 10.831177871593365 10.735046889168336
Si 6.394477764755559 8.24457849159024 10.840379705655609
Si 6.900615458657058 10.66149483796454 11.06198809475767
Si 10.494798830325093 13.123444363627565 10.269822129250764
Si 10.530923827141358 7.07785559030188 10.659594028106582
Si 9.09410258652773 9.227509260883417 9.942754670023023
Si 8.706884098760995 11.660960767094876 9.902320163757949
Si 12.70224659317087 7.793044371117135 11.089379211517961
Si 6.740862826085802 9.164785168513843 13.01371297600754
Si 9.065806037671765 5.6798925907085485 11.92650520720143
Si 8.746050616523243 8.002994963803783 12.464684968549621
Si 10.901597980154643 8.974265687346751 12.312964458684824
