23
Energy = -108.9898017 eV
Si 13.026410872716024 7.221861523156932 13.162613160864582
Si 10.635359711374896 9.57830013635559 11.90199010234611
Si 12.986297613313608 7.259532405371199 10.487385686668294
Si 12.764665022465984 9.737270109178896 10.623825472350074
Si 10.698117216791573 7.085401064668861 11.863635187313417
Si 12.803800224016076 9.705546287662987 13.111982109995406
Si 9.33064397411295 11.574884698218664 11.956754986952816
Si 13.187450630905404 11.868742237934626 9.640648864841936
Si 13.262699990292047 11.804392314817346 14.148524092249003
Si 11.060736735894064 12.395095525430659 13.402070186357829
Si 13.561242699163149 12.584793185958189 11.89974173456734
Si 11.012608240156887 12.436994122988247 10.479533311147412
Si 11.75821811007255 14.265985807352257 11.955369849992772
Si 12.436582948943967 16.237178885631327 10.532899847994653
Si 9.974546236369699 16.049736737766313 12.01345520516504
Si 12.484849857243143 16.194447140155575 13.41194295634411
Si 10.569575956272786 14.827564007701318 14.032004761242383
Si 14.07288397142077 15.095413761034825 11.928138245243119
Si 10.499272881787773 14.888935689677934 9.937977162910869
Si 11.51506493767373 17.919282182242675 12.014279078659884
Si 10.967477825010649 8.338591494265716 13.99213130272199
Si 14.585355254743565 8.618272737653339 11.825744672089215
Si 10.895771941358436 8.401410796876256 9.76698487408215
