21
Energy = -98.231129 eV
Si 10.1540512510292 9.302950400734044 7.062276375790779
Si 6.617102325915377 10.31487670475603 8.771710776967252
Si 10.436321008196032 11.769747285095768 7.367867472876628
Si 7.987486283163359 10.907951047277297 6.911663886280143
Si 12.45602389926993 9.122710781598151 8.309488910705811
Si 8.583490157267551 13.07784120956821 7.808130762295495
Si 10.470862336069711 9.820107819119247 9.439713238970715
Si 12.226066341757765 11.53379175341019 8.999335886875423
Si 8.345038921216174 8.742088073680398 8.650675322252935
Si 11.616814433196785 7.742573567069121 10.268379489322593
Si 9.848868830698434 12.300544528041709 9.754911185293642
Si 11.87128665308411 13.323547446344095 10.561053022501884
Si 8.231006369601028 10.604221605485836 10.517538989924475
Si 9.271292354457135 8.10302733275993 10.815991100070608
Si 12.150157494567484 9.181610068891741 12.092573526392584
Si 11.916863008736655 11.579017211434584 12.17612983115864
Si 8.083506039836607 9.343684671633746 12.518045828186622
Si 10.235957673118016 10.12880063823468 13.141333848750744
Si 13.683870452062855 10.492112481739133 13.498384512720248
Si 11.922032039007863 8.988674504724019 14.50787885796437
Si 11.724561860135541 11.452780600789682 14.659576907085563
