27
Energy = -125.77826484 eV
Si 12.921317804705762 8.210100246800982 7.752287423977035
Si 6.362512076564479 10.62101312458456 8.079056537077147
Si 11.751911278254818 7.740313822013166 9.799873412214557
Si 7.366624120308134 10.658582537100886 5.86863177801998
Si 5.650633490443002 9.947267269015999 11.735497901600768
Si 8.315252307642075 6.713185836163288 7.3859778484844965
Si 6.733769820872564 8.997279713768425 9.70515430212269
Si 5.664300507724959 11.83188339284964 10.022833799623955
Si 9.393143324144031 11.500754972736262 11.213657870011797
Si 11.874787662846808 8.077816952504012 12.17324661385335
Si 10.139029517353332 6.30537904797088 12.985073232447482
Si 8.50653276499164 6.986889141732726 11.433041855809515
Si 11.247882064061505 11.496327089597186 7.047131630096582
Si 14.105288294843113 10.312575464269091 7.318464245419923
Si 9.611862245729201 8.557752225088509 13.171076177013976
Si 7.934863734683804 12.31611841082587 9.475689822574573
Si 8.808173093389101 8.961764658295028 6.763086596891492
Si 11.172431771678067 9.099762043463194 6.4574204232359715
Si 6.999103025265655 6.5346120564042165 9.383599090805857
Si 7.986772622606563 9.793011444678909 11.93728716363926
Si 12.153022974648731 10.269047024546827 8.775336641065143
Si 8.86628226173017 11.498439703933927 7.475968720254881
Si 8.976180035030817 9.819716066940128 9.44289850715721
Si 11.24546116332239 10.017472973988744 10.908907378115023
Si 9.483100037394841 7.418356908527923 9.306444341745243
Si 6.0723990398348064 7.301960898933976 11.457851847404598
Si 12.609614522834924 10.629809570242415 5.297496825163711
