24
Energy = -111.47085386 eV
Si 12.25908438339242 11.136362659364629 9.286388965986442
Si 10.2685338218521 11.149868974070952 7.958063444934373
Si 11.756339400465134 8.957878633019229 8.382055118939665
Si 8.309655858358605 10.567621303542143 9.233187793181829
Si 9.656431978350323 11.064363644841873 5.603423494730172
Si 8.535354357687414 10.744054534439016 11.671061796559115
Si 10.135988202968411 8.980407573308158 6.588172441639869
Si 12.267274709920994 7.92824017905566 6.157151485830647
Si 6.003995393391533 10.515548792519306 10.46073477856562
Si 10.503079964707096 9.923388718887301 10.41477340418336
Si 11.963072267796916 6.415701053024235 8.248443713101816
Si 10.688005175778716 7.45161548703435 10.155457543491826
Si 8.540496410402962 8.07452883293818 9.090301560407863
Si 6.9198452509679 9.583235099691024 7.670146878241178
Si 5.372266717368663 9.595612783557543 12.667273065719431
Si 4.793736323407319 9.255003432811753 8.676280197157057
Si 7.854055226328946 9.483249322425177 5.487684084469467
Si 10.58313189469165 6.161383136691688 6.192506511298918
Si 7.40629625581832 8.646411004941683 11.812526583159473
Si 8.405493068142752 7.254766049180879 6.737566080717421
Si 6.3218730015873135 7.137483224214228 8.279226463587186
Si 9.611796506180816 5.76951010539552 8.472702180310934
Si 5.234371272215692 8.127169813034978 10.768196662538482
Si 7.071749227281403 6.552295105250745 10.558179414044211
