22
Energy = -101.13415399 eV
Si 11.106779661495645 13.482164470815013 7.084406639962687
Si 8.685203677647834 12.465845990827093 10.222023187625787
Si 10.002724248183087 11.887529838909694 8.308686424375498
Si 11.743563301076996 14.401812057488282 9.330960086214317
Si 7.524832193772221 8.679071318497378 9.435627855636167
Si 10.081450874553227 14.222366800714235 11.119802018150095
Si 8.359484358178221 10.23557990617494 11.002434541595552
Si 12.537664631698327 12.295281251848653 8.51786589348995
Si 9.634885417462355 9.499938617603819 8.718451869659267
Si 9.388884573848912 7.900417611692137 10.831181082844603
Si 10.966348453143123 11.995668545333197 11.029094848853408
Si 11.430718325253318 8.144483819451864 9.330190272420383
Si 12.0138235890997 13.785361153291698 12.486592564823066
Si 12.243741969485619 10.360437615355965 9.731679151147885
Si 13.792181244142855 12.162752173527185 12.716608468752426
Si 9.089625977252973 9.034280796569067 12.93900394430119
Si 11.860442728612815 12.398353684390031 14.438941687650049
Si 11.049344201489111 10.467662515640667 12.897947668709579
Si 11.445620647242787 8.013647469431707 12.195178849834017
Si 14.13337978456508 12.122904733580622 15.089497217374566
Si 13.222320619584712 9.669722207851793 11.825768627638348
Si 13.108193020967681 10.168537563480252 14.184525731213522
