26
Energy = -119.70972506 eV
Si 14.554376666500888 8.600644974945626 9.838601682423468
Si 11.630455275491254 12.867326946233645 13.40592588483979
Si 12.73167838068546 9.482867512174272 11.01916999652707
Si 13.027709782783628 7.175282103763734 8.488440976431043
Si 14.72783695521797 10.829269271773896 8.733785473595532
Si 12.495996523154675 11.81852769151805 11.465789825860902
Si 9.758349369938639 14.499362461442793 13.512838844053501
Si 9.476678417882539 12.08617652568552 13.723768373449362
Si 11.062224828099136 6.1495254448768115 9.5802652166433
Si 13.639109114464988 13.023269574447252 9.69404764013299
Si 8.094170083746576 10.164975923735053 13.756493255665253
Si 9.79144763191233 13.328737597852438 11.529047324311152
Si 12.63622202532309 9.458642722628175 8.451022978638669
Si 12.81406174282104 11.802032060676368 7.675943203883171
Si 11.045645948986866 7.826041123166363 11.253466384312778
Si 10.705295499604711 10.361646784923076 9.696800798766292
Si 9.488081721772696 7.899585093753695 9.323033055095957
Si 11.222837242558404 12.86249273386172 9.661959286215197
Si 9.134956271400377 10.953390526386825 11.478296679184677
Si 10.324628341690946 11.964190407757775 7.687326033255964
Si 8.997377301363523 8.523919859081824 12.0817667259796
Si 8.88182449700027 9.930278210094832 8.081695133177169
Si 6.766120278912203 11.433974548417778 12.23749694257281
Si 7.400167881032772 7.9876519433218816 10.430141113898264
Si 7.2630014297889245 10.361750461917913 9.991472069137359
Si 5.584565895834579 11.978586634600168 10.375290464099898
