28
Energy = -131.64295243 eV
Si 12.209464647214164 6.799625060375131 10.936481911709725
Si 14.23439630662458 5.675853001909781 11.548610342430308
Si 9.99898678362243 6.41565371185956 11.738680020748628
Si 14.476180649255625 7.776317061858951 10.570407471111848
Si 11.287142542548864 7.70229238473661 13.299986194815157
Si 9.680071815549985 8.714341873476497 11.464001688031646
Si 13.784949911733571 7.602315972575082 13.040523572827265
Si 10.747377918163265 9.95214871162809 9.835081513756608
Si 12.383107965956217 8.371219583620162 9.051889171967325
Si 7.565611642758672 9.885394979494913 11.379357196870194
Si 10.871748724403334 9.998336241122372 13.579398338723246
Si 8.961869129461338 11.177896029111217 12.78028934549523
Si 14.632918276172752 9.13715239568327 8.654402523558277
Si 9.198936315260529 11.600641862350976 7.22524923392811
Si 11.69639097652282 12.14497158985421 10.123335241129812
Si 13.323056732479847 10.47239549064589 10.12654178337232
Si 7.491240864752633 12.49133905716516 5.7471206899811005
Si 12.735163221821484 11.396724885582051 14.033916694864494
Si 13.235625617541364 9.794063072338583 12.369574049299853
Si 8.426305059540665 11.194560208837594 9.535765832046502
Si 11.255643424030016 12.33481280461148 12.399645672860263
Si 7.89576640662811 13.989134382960751 7.450670464187815
Si 6.6654431170693975 11.843386553832824 7.95662785913657
Si 9.967146251244145 13.18506902525512 8.913766084126118
Si 8.84550439596382 15.271990898783525 9.25886699486055
Si 8.47203922233573 13.341976410507545 10.821749512497352
Si 9.263156298769214 13.494611663056851 13.065791746398268
Si 6.5621242912341335 13.82392610634914 9.53628954063457
