25
Energy = -117.78156372 eV
Si 19.5544322347358 14.064621551340178 13.82710245
Si 17.979992202503794 13.440705997091218 11.835931241863149
Si 18.653803048955055 15.71753056263175 12.369453862320022
Si 16.187712329866265 14.966165643638378 12.566657467113567
Si 18.653803048955055 15.71753056263175 15.284751037679982
Si 17.0562690471833 16.95841693719347 13.82710245
Si 18.68868832700926 11.841632748276263 13.82710245
Si 13.030861706693823 12.029727447449126 15.929138659114539
Si 11.990683114378196 11.068336348610895 13.82710245
Si 13.030861706693823 12.029727447449126 11.725066240885454
Si 14.165916268731872 12.475588558116797 13.82710245
Si 17.979992202503794 13.440705997091218 15.81827365813685
Si 16.519691044529925 12.92168592954493 13.82710245
Si 16.187712329866265 14.966165643638378 15.087547432886419
Si 9.422187737917415 11.830367495384769 13.82710245
Si 11.137041796928717 13.238588259408731 12.554267586550273
Si 11.753919742126744 15.263498609131009 13.82710245
Si 9.637304066534542 15.564943105933175 15.13581514438774
Si 11.137041796928717 13.238588259408731 15.099937313449736
Si 8.951163661945976 13.194339127874398 15.93567338115407
Si 8.116383972081051 14.154321048625727 13.82710245
Si 9.637304066534542 15.564943105933175 12.518389755612262
Si 8.951163661945976 13.194339127874398 11.718531518845932
Si 13.626961830879374 14.405356437103183 12.401656667861554
Si 13.626961830879374 14.405356437103183 15.252548232138441
