20
Energy = -94.03853725 eV
Si 14.171844101682971 12.031731322047152 6.2792758503190225
Si 12.440036381200617 10.796745124975597 7.346574597066828
Si 10.867554277246928 9.72844863126141 8.76451607955438
Si 12.78806814875506 13.274209811154476 7.918317461445318
Si 13.396246673270948 9.303267737398777 9.148738177641325
Si 14.515219948516755 11.491236229922219 8.566029991074101
Si 10.918992905762032 12.224970428016457 8.997097762749672
Si 12.017178131935351 10.669210867960434 10.708208078593497
Si 14.441618088572925 10.937207364774805 10.872769482103047
Si 13.078403399866167 12.955939910440707 10.281832004060764
Si 10.820520100321339 12.889300314909416 11.447770582642105
Si 10.85951756902948 10.4765051651017 12.794784541607303
Si 8.832447991458526 11.998389487961509 12.535937378056873
Si 8.60045068233639 9.574072963982255 12.772283476816847
Si 10.996387698376841 12.780850490267932 13.871375308239054
Si 12.038712651296484 10.818117584259868 14.895154354263486
Si 8.750081823617878 13.332187511574105 14.53971871971035
Si 9.939636481560772 9.455362992873555 14.882057869503726
Si 7.92078035391791 10.952508459630938 14.739376686551907
Si 9.985296204960664 11.688731215173211 16.017175211687725
