26
Energy = -121.02207746 eV
Si 12.87573954921201 9.07326794958226 9.894499349275913
Si 7.483393964846274 6.957821973057376 9.61697380403016
Si 9.464580408598604 5.78884859474941 7.135541194633476
Si 10.820662382543487 5.499432211386833 11.472309175894242
Si 7.866066657383606 9.853304890698457 6.493839194050908
Si 9.548284303057612 9.03580003309987 12.323880493700644
Si 10.127958024656357 7.945872856364499 6.780642635924394
Si 10.76883320567339 9.419187380220068 8.658100697469296
Si 8.276056693889535 9.132178973385088 8.92978308000847
Si 6.960897924290477 10.848396426771595 10.132360004750847
Si 6.5154984332593875 6.760779704907236 11.862395793509663
Si 9.605056636383418 9.319579516443985 4.918157063171861
Si 6.88179589297817 12.08789846396734 6.802817694243782
Si 9.681824933501671 6.133970635586047 9.508377750777282
Si 11.8128222242839 11.2459550759182 10.231348620710715
Si 10.734494470304199 10.693775527649272 6.574606053077288
Si 8.94936760487054 6.717074656208406 12.308264877006927
Si 7.554635777986517 7.396012375045411 7.1162773220862094
Si 10.925844151810947 7.839688235136415 10.70423746540355
Si 7.3499047533931225 8.871014790884308 11.34816262310935
Si 5.603512881032396 12.269263947762298 8.80375766234611
Si 5.859193865351931 10.022866368458368 8.042217828638
Si 11.966766596136653 9.65307542940444 12.174084047596242
Si 9.35320081412806 11.255667353332317 9.843109557018279
Si 10.204692360087288 11.44673267320018 12.151038278498007
Si 9.1300479274431 11.999783765158698 7.613821680080368
