32
Energy = -150.27830105 eV
Si 6.166977070475491 14.903173443950703 9.274403052215858
Si 12.903481368384917 7.544289319218328 11.397672910205678
Si 6.373062836051863 12.820160978741496 10.46109649949345
Si 11.24978718716871 12.039272383844624 13.757370359971398
Si 10.166278251381014 9.194155732195577 11.583900970042347
Si 11.375518030437233 14.41871205493072 9.429951532546692
Si 8.317632064296738 14.334546168428394 10.06507971871408
Si 8.11206888035116 10.384669199927918 11.279125627312256
Si 13.503687490990954 13.960875876578731 10.897892710984179
Si 15.629235104351832 9.188205179120917 13.20518466192617
Si 11.328855702232543 9.012085982334316 7.887215209300862
Si 14.176970324568725 7.859069663518072 14.868418267403316
Si 15.205306888962486 8.312458608205004 10.89035987788497
Si 12.426803589227102 6.650728098306402 13.581673496442313
Si 13.632052799634208 9.967084074161715 11.686475369212117
Si 8.348670711693785 12.647979077594925 11.891391185156156
Si 14.941653147571502 6.789620132979296 12.855171811482382
Si 7.316786860419413 13.141418104974095 8.091799932318224
Si 11.285888315537074 13.293931033899975 11.637672562198583
Si 11.854469482023159 8.974209983959652 13.245889467059975
Si 9.707181547803621 12.900218981569198 8.380947836281624
Si 9.490290576568032 10.559592460570975 8.31307401972571
Si 13.497582602546483 12.25825672372089 12.497090026038228
Si 10.075461813930954 15.56113536056705 11.152602126268546
Si 13.643060592717644 10.156072956080022 14.263727278432958
Si 13.410375273537662 12.474613039269405 14.835070979213757
Si 9.741690164120458 14.0929666730953 13.294019166647876
Si 10.91976688897313 7.729005111227337 9.941460973043721
Si 7.134721561167604 10.83685339554864 9.020109744672965
Si 13.61380644790251 14.488380768446344 8.69526607628756
Si 11.918781420997641 10.013451375662205 9.954128580144497
Si 10.15114391047156 11.547849377374359 10.495677151728946
