38
Energy = -179.8148889 eV
Si 8.965279298209374 5.818730118891935 5.9648921845263665
Si 4.121666949341892 9.935154409357626 5.413785174625576
Si 7.481566243575765 3.9321737670533023 5.51030739658645
Si 5.742706658000405 6.716169868469018 3.149803667876175
Si 7.70963100684489 7.246164454920142 4.466298495916341
Si 3.9855219562134288 7.806885084500383 4.424715204747161
Si 11.337695943579 5.822845449883973 5.804981193454037
Si 3.426254217645998 9.827118807964945 7.730759843294611
Si 5.4824353222468325 4.870927420936237 4.637485589959861
Si 8.845635134784558 9.18852194152475 5.17979658705022
Si 10.598736046109295 8.486614989657205 6.585507220485543
Si 12.780381144456793 7.740915138821976 6.166265181317497
Si 9.328070952439203 4.644842918367527 8.18147228659385
Si 6.4101771440846855 10.140949509009314 6.140364178830377
Si 4.616000157482388 7.9676069231185895 6.776605906456082
Si 8.16888637238873 11.43763845284484 5.325683900170683
Si 7.2963164202790995 3.3378036888594678 7.8464121585301605
Si 2.8203512502504413 6.49966053972942 5.999022945550003
Si 10.19002020932482 10.01383628755488 8.377947541816319
Si 8.243420423575095 8.314575028915982 8.536092278492147
Si 6.0886235029307905 5.3162109341991135 6.995983561301771
Si 3.7654688753632026 4.312647680936897 6.210380808668915
Si 8.482299622655379 11.438554487080077 7.696968303373168
Si 2.709222130537184 7.345491730365413 8.238604448862434
Si 5.727849465144287 10.470607694573129 8.445116808904961
Si 11.85183633483112 6.639266508596682 8.140325118690937
Si 6.957377808117563 7.675554093231543 6.698409591911324
Si 11.657550720566995 4.328986881500196 7.605597778306284
Si 7.137601805807538 12.177077655316403 9.500518770866131
Si 7.443591431488303 4.895144996043546 10.026495748763498
Si 4.187400828363633 5.159423280258434 8.536181135099984
Si 9.99885931298366 7.2131446772214876 9.6291588472621
Si 5.657084239384668 3.344409819565574 9.571023227714203
Si 10.527024255993005 9.410563092543605 10.64777840098075
Si 6.132592460732686 6.637277787628051 9.132564970632691
Si 6.317735009131707 8.858581485160343 10.061992191419218
Si 9.707220269059881 5.0325011033361395 10.5719748477031
Si 8.292959381651848 10.18847159763756 10.265776808835549
