30
Energy = -141.92119144 eV
Si 13.222305443389173 7.947434534658115 11.729182574771286
Si 11.74728994093048 13.008741792702866 8.275880592331962
Si 7.668001261285258 8.251171798015976 8.377066443765104
Si 8.589060765497633 11.898103846194633 13.015083774400827
Si 9.050366155131446 11.660546802514991 7.72704229561792
Si 10.057515213370172 9.306823816186355 13.317856566399167
Si 11.659778072588027 11.010555017298742 13.239437450804084
Si 10.501431087395902 10.179419284995605 6.550025539252263
Si 6.741207927052885 10.895957418659943 10.445827631274815
Si 13.721071158272633 11.085845957608118 10.195586624914794
Si 14.351855519398343 9.805017284284192 8.316596248180073
Si 7.584624490965764 9.04808438283536 11.539212679161365
Si 9.278910729623066 12.803197456664725 10.069342982339618
Si 11.296389271514833 6.664282366110094 8.608948328196302
Si 9.717347452021523 7.140477641036812 10.31709316885458
Si 11.106626800501614 12.966386202696292 11.509721331372509
Si 7.298982639429703 12.981121440201965 11.361658114329721
Si 7.371989296448558 6.968445509098636 10.389071097724285
Si 13.030092829399928 13.295288142456602 10.200773186603456
Si 12.724885738952988 8.415963724830624 9.415380875684379
Si 9.584904172652248 13.948993050576702 7.991509768212539
Si 10.579933865254604 13.055080262944196 13.769291117742108
Si 9.907010624686173 8.312637899547692 7.807196274579006
Si 10.978239630397832 7.422463054869164 12.306031855517258
Si 6.944305515556605 10.503552604467863 8.134481540035837
Si 12.407395066086691 10.898039409881612 7.5809249577839415
Si 13.730343942215843 10.191404406726633 12.391214275730482
Si 7.880174192458781 9.782453325653824 13.800458371362396
Si 9.02650810143267 10.075310856025176 9.673382871696894
Si 11.401166981269347 9.636914595437512 11.104435346542635
