38
Energy = -179.26312993 eV
Si 14.400529694312104 7.963218173518992 6.925427885940183
Si 9.347232893172643 5.798210706482017 10.998780244253226
Si 12.5446190150678 7.147544310384404 10.356322711277446
Si 14.196607413602008 10.485162791648612 6.560313114726195
Si 11.223302937698376 6.595319745283131 12.299761414174199
Si 12.427529028684972 7.318923142644712 8.008174642754799
Si 14.010376773173277 8.96739413824284 10.947530383474335
Si 12.126556632709013 10.776274545740367 7.663681129224943
Si 14.224459157643878 9.491356063797612 8.674055779542552
Si 8.580586800736661 6.701575492619781 8.91022030467907
Si 10.253388151306119 7.249340339225694 7.0039527647610695
Si 7.624533713067409 7.13957597484467 11.957236961131528
Si 10.592033215471707 8.971354305035396 13.152828710623329
Si 10.167529690314876 9.57605016822181 6.954000002739956
Si 9.686967278890354 8.240160260627555 11.068784586610708
Si 12.588627755992187 14.28941852192542 10.102288744866378
Si 11.746971626605129 9.321911344170005 9.613606394001565
Si 12.140359197311476 10.226778855611537 11.774159199462222
Si 8.247590901327097 5.926561416769842 6.727354893094665
Si 8.95434575488239 9.236540429718227 8.969505774903828
Si 11.703320754296502 12.505536795265156 11.3447515884453
Si 11.30124660182916 12.690500600809683 8.8550038979815
Si 5.100120445955758 8.704961892394486 8.668220991389285
Si 8.120357715488769 8.623264817729613 13.823732030971252
Si 6.294664330152311 6.991431090224106 9.893724368648176
Si 7.003318721316775 7.965043896221713 7.239921356489966
Si 9.482620238159114 11.61730576999993 10.152821172467615
Si 8.8886574192993 10.705859809707968 12.332733077743116
Si 10.30720201939169 15.059252245852816 10.557883794175948
Si 6.903427808599448 9.217261435412073 10.785590021382488
Si 7.839101905127601 10.059560247799046 6.58462934095269
Si 9.862967634363223 12.95239430879915 12.689162757980103
Si 6.636122291445979 10.36518250052179 12.86013085153045
Si 6.819619168107954 10.48399941264122 8.680445231229989
Si 9.343673693190693 14.02445978365561 8.627230536761106
Si 7.460305979541082 12.699435908763656 9.27856368493554
Si 9.127436462689865 15.326489856165926 12.64702143880852
Si 8.182658220972169 13.82338636950336 11.132123713977942
