31
Energy = -146.04339793 eV
Si 8.980836725887679 11.668570036599204 6.081412780880987
Si 10.746915365936138 10.206172174864806 6.9535864196622255
Si 10.70076464409416 12.807524578511028 7.09180911168525
Si 12.148151955433915 10.762387481189213 8.72062489944683
Si 12.009013065293175 14.627949953633415 7.758284592777949
Si 9.352892333982133 8.686219063251073 8.161095969456138
Si 8.449860462905965 12.410182231236696 8.364690365817287
Si 7.735941566987304 14.45666506405187 9.318578443813129
Si 10.156383162160392 14.137033717903563 9.279833729666443
Si 8.912921158245954 10.444603270982853 9.653203137010712
Si 12.998104480299734 9.062897203943846 10.138269333207715
Si 12.891551710889985 12.92810137254775 9.216456513932451
Si 13.02518517917588 6.744340045360752 9.60569234132225
Si 10.759057877553229 7.524651791874379 9.678745584494019
Si 10.753850078691663 12.079057670591894 10.34358334858036
Si 9.803256866605725 6.181393806927416 11.39679182793081
Si 12.044851840846272 6.691324323931436 11.808299812373342
Si 12.927802162066653 12.423603758769021 11.525456938529228
Si 14.20100919607389 10.383058756015892 11.795080357661655
Si 7.260959629658572 10.752856454099678 11.341333669173327
Si 7.957369355379399 13.012120550828065 11.196995409312347
Si 9.837371173911084 10.520753860647384 11.994175372377933
Si 11.93437541493779 9.462832466622144 12.27595271878778
Si 9.785598476802472 8.039387198833358 12.84460086371929
Si 11.942920157329553 7.72400404532 13.968132683819679
Si 9.923438458766627 13.02950999684283 12.517233703066314
Si 12.13878015867928 13.603563173719955 13.412925210290805
Si 8.10277319518551 9.65594162830846 13.452971651057592
Si 13.564988726006902 9.635111332368968 14.180694975228203
Si 11.863154360995365 11.320943690776772 14.064419200698977
Si 9.511541333160894 11.438859573389575 14.280689308162273
