34
Energy = -162.29439296 eV
Si 10.57566748024616 11.764979324529966 13.43000436954422
Si 7.9239861267986536 14.80627770537095 13.334864325687606
Si 9.0218615558412 10.947186707609768 11.83018674170719
Si 9.791067346778883 13.783366329258273 14.632021359092736
Si 7.418336477006485 11.147028759715209 13.593030924807518
Si 9.133493319859529 11.332290320735531 15.323826079921433
Si 5.9466646229755495 13.101217683004734 13.36494551698846
Si 7.644299471082134 12.870236010519598 11.62528695887305
Si 7.550381849222053 13.138056662732705 15.264342799877383
Si 9.823630908176346 13.734560648244575 12.16626901936871
Si 11.373511073351494 15.274573313019953 15.604224793418286
Si 12.059599895364018 15.842059266085636 13.374031430813353
Si 15.291493392386972 14.203476773529792 10.757151135330693
Si 15.857046657158225 15.961361697453734 12.258753595560108
Si 14.09957534043421 17.058787355698193 13.407953804166366
Si 15.806968217557252 15.961315459464464 14.639831687625971
Si 17.531068366771404 17.310570291127892 13.485696338595421
Si 15.670159486182895 18.43474736164863 14.70593512182686
Si 15.72666892602935 18.44020660976462 12.193615238177118
Si 15.217792573582486 14.19648988462322 16.12008738254152
Si 13.206136730201749 13.985896669312766 14.794589774990785
Si 12.888903423346024 12.106315218464362 13.418049243067212
Si 13.242384578436079 13.969706712635588 12.025582561399732
Si 11.404645209534177 15.213015254751387 11.148117059466323
Si 14.983872390597902 11.072498345297008 13.440162325539736
Si 18.48532242587852 13.13301568479636 13.47242685381443
Si 16.252813581631187 10.040773414967164 11.695249256224455
Si 16.367246801246374 12.69141424834435 14.684818028313616
Si 17.810229876982763 9.426412123271579 13.451577684079684
Si 16.222901149938266 10.01593213634572 15.184678980203435
Si 19.833257757546637 10.815260595029052 13.48532652348764
Si 18.27363250917755 11.299733943363654 11.66342594191675
Si 18.2296955700892 11.28929499176839 15.265550966370526
Si 16.39304941400141 12.689307002927935 12.215750682615399
