36
Energy = -170.70834075 eV
Si 14.501446094520567 11.952141875862324 6.3445066710681655
Si 8.673704422232273 12.165921631655284 8.026963462048665
Si 16.226994870718876 13.132841957216158 7.7828549988174744
Si 16.22110888004744 10.643493727842129 7.614329703016012
Si 13.866906669665033 13.026880444712502 8.452660890703436
Si 13.893929760991302 10.668293737365206 8.370456586607293
Si 9.77134816158637 10.316941950328916 9.09727512533029
Si 9.943681347894676 13.302795390256398 9.693418235495212
Si 12.027715278866449 9.716209729799592 9.458590829558013
Si 12.207877919386243 14.07543768811666 9.774332388927647
Si 7.200236668532483 12.006798318607188 9.955341222066327
Si 15.494649319630415 11.802458327041276 9.729047839283734
Si 11.579524416211907 11.735237688450669 10.637430763593072
Si 8.723650408203511 8.54671858780166 10.1825470472649
Si 6.50461959704503 13.84685848610976 11.4240557365747
Si 8.855761068251992 14.672553901349076 11.320407043257186
Si 7.263292684700851 10.03137962696927 11.191005689802846
Si 12.313298630557451 7.970899177546813 11.109050500977492
Si 14.754982707137325 11.570884218437257 12.043246114623317
Si 8.4833067165305 12.303140133625144 12.038346908994022
Si 16.276141427379383 9.474679051167891 12.394779973834034
Si 10.474671210889781 11.079886489238556 12.721049569092818
Si 12.995276902580756 13.221185929187794 11.854231404107377
Si 13.842753294739687 9.347166898660237 12.279574217609893
Si 10.209132757732803 8.68243993296455 12.009401656458891
Si 6.4837527201545955 12.305053385214352 13.458219212841552
Si 6.450527642401861 9.831900628649139 13.361030380612513
Si 9.994016440346341 13.950417543789442 13.25177519513394
Si 16.007316810546698 11.2975879242562 14.102166794671518
Si 13.660996258820427 10.64495566544803 14.26369490517567
Si 11.634626962467069 11.754679810465515 14.642713618544255
Si 15.151948606636987 8.827329254544118 14.406265274237166
Si 8.489896183402728 12.625125913450285 14.554065664251608
Si 12.227050517010312 14.01285060269839 13.985971626000135
Si 9.62645304391774 10.818762686447936 15.59749641881729
Si 8.828451727855576 9.499139814318207 13.732744460195136
