35
Energy = -165.91232381 eV
Si 11.247347362284575 13.6381730088009 6.670242257364451
Si 12.128186162430834 11.485569952818041 7.196183029946841
Si 11.626796846627357 9.23188352598671 7.652688564006826
Si 14.29190968683866 11.847636202685127 8.049953432656727
Si 7.75094917362784 9.074412094480437 9.402691379888195
Si 10.23280352673322 12.752496943409607 8.651244932384751
Si 10.13104487723408 8.788845801216596 9.535625097048598
Si 8.403553241922861 11.401595599782038 9.488110872594538
Si 12.942131905417062 13.664692378957229 8.464195055153098
Si 11.30309836386312 10.804185931028337 9.577229424978887
Si 13.240261680625016 9.017892071553796 9.402543118911016
Si 10.627389525131584 14.035487327442809 10.582116417422991
Si 12.777342542489128 15.193227585886193 10.406683568833454
Si 13.342374689839748 11.13336016227944 10.827582972374532
Si 15.24827958430595 10.320456145455424 9.694748533893167
Si 7.563365443691421 12.245694673677358 11.520123193401274
Si 11.846552345303662 7.307747535003093 10.384172545495112
Si 12.615132487355522 13.158241262343626 11.782987698763403
Si 14.11163451402031 14.867774193018017 12.572926225181408
Si 8.231790708467749 10.035277375269306 11.530732432403203
Si 9.541399450969005 13.223090125479573 12.498128955958931
Si 10.645923097923218 16.445432218085934 10.746090683179093
Si 12.605041487973743 10.089560592775358 12.825749592040285
Si 11.6298192523321 7.864636102805264 12.729386691011369
Si 10.117037381306268 9.741471959780224 12.914483525601643
Si 12.222152583738444 16.574695916664503 12.691770513590868
Si 11.177744746099574 11.989956192684165 13.721821166263457
Si 12.090846541023257 14.337907786177931 13.933695358959694
Si 13.537741583499557 8.565187370191733 14.384326759482814
Si 10.060554487719111 15.524183620773643 13.026046313281434
Si 12.705416105837783 10.752315675060165 15.277578325094044
Si 9.724660285594846 7.9916529621618855 14.524259655372942
Si 11.864829998551029 6.770506956181028 14.906699021706997
Si 9.918040236431956 10.367393083521074 15.28698166299632
Si 11.570154901251158 8.830666475023534 16.21350783121823
