35
Energy = -165.49017338 eV
Si 11.919247288722143 12.860636904033386 6.376494111841594
Si 11.191695470525916 8.318897535709537 6.462413569326644
Si 12.218150517885956 10.50547559543579 6.941360173149952
Si 10.049680924481946 9.529429547288483 8.10220486281414
Si 10.192136922093201 12.104632273528678 7.766817227821482
Si 12.809975538115093 13.915739727075588 8.523796999226738
Si 8.146633414461322 10.990893259328304 8.195212041948473
Si 14.092630124002293 10.221199578978018 8.40701092027513
Si 11.554965632553316 7.7413360639983075 8.873013818885052
Si 11.7096901399429 15.228898219030636 10.349410727473106
Si 13.80025099825399 12.17142661975888 9.648322264542136
Si 12.024292915743251 10.08224035746661 9.70416685428557
Si 11.276420432932658 12.526869115258458 9.821226996869996
Si 13.739889180551401 8.25474838325983 9.760544970113381
Si 10.216063118072938 6.572643552343006 10.585677824119927
Si 9.477979543960105 10.303158384587444 10.521926599434018
Si 9.611963031114035 14.030796326129401 10.91720205969739
Si 7.953145211585263 12.079680961726526 10.37675864448974
Si 7.004481695749344 10.227335366574664 11.626856032108659
Si 11.386048498807698 12.52636107400343 12.217307955749066
Si 12.913548717691494 9.255779143134594 11.826451476802879
Si 8.900002400293234 8.322821510845275 11.720997037190696
Si 11.40579340325386 7.560217370461958 12.406732000950683
Si 13.893516304183894 12.528563144096577 11.957344556069971
Si 13.000997010650222 14.63948475231655 12.49023865510289
Si 9.286205019858953 13.545779377802964 13.216255463154289
Si 10.569477744144347 10.111231780855446 12.800466528065044
Si 8.322157627589386 11.364511863688024 13.194308205386639
Si 14.361717460923607 10.599756474140172 13.230132169202031
Si 11.789198930251521 13.616520686132008 14.36772326915095
Si 9.754868206778886 7.987713646472791 14.07164059685644
Si 12.350673152782527 11.277595178910268 14.241520289408314
Si 9.723600505504061 14.13633790167201 15.477537755540967
Si 9.30947435618175 11.727534001098995 15.248477693374923
Si 10.811692325096093 9.9020180875971 15.340713414309382
