34
Energy = -160.65857794 eV
Si 13.05865218020684 9.086276740123834 6.909300468239814
Si 10.627944997468427 12.438270360859141 7.703912231002097
Si 11.134253834491567 10.104826661282658 7.773813861838436
Si 9.73604284765463 8.552086472064119 8.978434400153828
Si 12.333712922981094 13.422706169409661 9.077818815417597
Si 13.008664658302925 6.759035281975898 7.803308318666739
Si 13.40754134900905 9.856177070702639 9.108056340392778
Si 11.255363968857512 6.749016041232298 9.416162389044533
Si 11.683783884499448 15.509975645382237 9.91022462728309
Si 8.751174941542914 12.951140217440424 9.188045951607267
Si 14.06526106394503 12.005651244459541 9.919498624594384
Si 8.507693028121356 9.752413600366921 10.567410938360466
Si 11.503587716212843 8.95727982699344 10.645712427885275
Si 9.458046280297953 14.86689052578212 10.240119944667283
Si 11.5074653741546 11.373517576986034 9.893208646538234
Si 6.925563699649576 11.580710411065404 10.173992000087672
Si 13.988458198402633 9.535568760122262 12.88735022671501
Si 9.443851811344826 11.92490026784575 11.224078195860406
Si 13.62094512422995 7.6174103849595545 9.973629003054205
Si 9.0750780015002 15.928820860124894 12.333170363654778
Si 12.28146791128922 6.529805624319564 11.668393893325511
Si 11.311037811405798 15.049535433052418 12.181116536348187
Si 11.324401249821639 12.458548865733585 12.61711619079862
Si 7.351974075645552 11.989787660453725 12.595425017021824
Si 13.693105376570445 11.942770610719815 12.340121772388459
Si 8.802014249766021 10.073687673616968 12.831178130399401
Si 11.77812829610039 8.550076269684343 12.92336355304084
Si 8.955188399204133 13.708277854706195 13.050891188449878
Si 12.52032597790649 14.187543608549786 14.00167982686281
Si 14.660258037565756 13.095544831528033 14.21502686132668
Si 11.07155848301972 11.025602034405885 14.629887873931654
Si 10.478010936687497 13.24877331517867 14.876161401316995
Si 9.998387118565239 8.928657224810934 14.5104215873602
Si 13.464315202269551 11.0219738827532 14.615227401056188
