35
Energy = -163.62125134 eV
Si 9.266131298626425 7.0478125777422544 7.428371038660047
Si 10.642364238844454 9.01923300733417 7.878985044983286
Si 14.340016560456782 10.710410208561035 13.068106299769742
Si 10.619817193732738 9.852823645799504 12.1617023067269
Si 13.3150871853865 12.252042414797575 11.586984017410437
Si 13.64762803453408 13.327993742712778 8.077177579130504
Si 9.192912263940116 7.771854043502378 9.665909424525614
Si 13.273517118762069 13.007407769400684 13.867003397833745
Si 11.748481658070604 14.439529615441904 9.337017825823162
Si 6.298220937217968 13.144994685593975 10.895131878766486
Si 9.813371010554743 12.650298277704895 13.434343934963959
Si 13.330655161221626 10.798422897072598 8.995561338530633
Si 10.403483336204237 7.468370721764533 11.630143788722942
Si 8.195855316875074 13.923616602907119 12.245590562736645
Si 12.73925774381049 7.058332837840223 11.045373910673364
Si 14.805625734182538 11.657221754373206 15.202153728715839
Si 7.575254642781763 9.530810631813477 9.674846022774968
Si 13.94402956927192 14.26250316917224 10.389357313532756
Si 11.573207515115982 9.142470352297265 14.358537683654896
Si 13.028851211497612 8.789945747951244 12.660347552694361
Si 10.340769192032967 13.53161191523441 11.202830410178798
Si 11.312123973796588 13.218465525463197 15.201837362343305
Si 12.386931924582422 10.428768918143827 6.834123877677059
Si 15.132751494752602 12.157907876638202 9.768197335223727
Si 8.639370246552255 10.584749994913482 13.267653773560431
Si 9.384235028740916 8.274984496918153 13.764146853274436
Si 11.353269639853213 12.195879829650657 8.140172468089865
Si 12.47138813610408 11.135627613694764 15.324925748926704
Si 7.308667364981795 11.08239523549275 11.385865352018847
Si 8.446507086856103 12.891772067688777 9.881854911404337
Si 11.327421388399724 11.46215593925521 10.485397686239748
Si 9.11102902179969 10.775330600620823 8.407156905275556
Si 11.855791115683331 8.950790336393576 9.944309762748423
Si 7.137361185568169 7.680132074201312 8.27676598592607
Si 9.075326414438123 12.951505621781855 7.565817946343238
