35
Energy = -166.65576406 eV
Si 10.557990123965048 11.596372624019718 13.425931118882186
Si 7.920961232807123 14.65876852400875 13.319694623542082
Si 9.03081947618703 10.860650427799778 11.755136292710347
Si 9.781754712292283 13.623641905675017 14.608989741651786
Si 7.405386784625879 10.979612861409642 13.53318564728721
Si 9.097408530953466 11.142791469425996 15.286855798155266
Si 5.925728663421813 12.93981576689715 13.36762533775529
Si 7.604346043959623 12.746766824252134 11.604070818128132
Si 7.547550675302331 12.958944432972938 15.229463921649698
Si 9.805809738380555 13.556718283002725 12.145252993670061
Si 11.366286905110458 15.12397525934294 15.570923361996023
Si 12.044471880086034 15.67444289214864 13.338829447585399
Si 15.314935645365248 14.002785132816372 10.775425243361
Si 15.253009555681206 14.00207784831921 16.057638567291836
Si 13.203448694438057 13.833735047730071 14.76991891967538
Si 12.87138615691859 11.940319213285035 13.409325585055393
Si 13.234750407294994 13.80385463564985 12.013523378900755
Si 11.38781041083434 15.030001895397122 11.124676444950657
Si 14.920209742791547 10.812598529797114 13.421178372765068
Si 18.465563487284022 12.794587708567194 13.445238959856095
Si 16.155415160276238 9.763916999286995 11.65939267815784
Si 16.33797375622599 12.39997063170377 14.652919105051371
Si 17.692902829715514 9.103930902390678 13.425907205316804
Si 16.131637146480504 9.737605859726234 15.175404913357122
Si 19.758049325246517 10.434967732631394 13.45705738802204
Si 18.20831513456466 10.964788378826418 11.64435062671726
Si 18.16990420527959 10.955039708834315 15.23237368932773
Si 16.358152912211366 12.396231764204948 12.200325674525857
Si 13.989920049476384 17.048824265986504 13.369597802128268
Si 15.199679072192435 17.9424001932226 15.410127157622503
Si 17.014581441473485 17.833993113775065 13.467070120293732
Si 15.785454666238394 15.806364090213517 12.255080319399418
Si 15.722695734162789 15.804901814066543 14.5882915969832
Si 15.329380535327411 17.952593228977026 11.417043315745149
Si 14.971920745361793 19.337621615571027 13.407785414416468
