38
Energy = -175.49297107 eV
Si 13.553088334432001 15.950316476968048 20.17599135839209
Si 14.010687733505998 14.6828874486529 17.31806461731049
Si 12.688183850555323 18.141481283787826 19.459824263623766
Si 12.929445429576813 21.004031605309734 12.643016179788493
Si 15.175724894470541 13.039785638673404 12.332472449134748
Si 13.31297997495548 20.130859509640086 18.212118304027296
Si 16.840055389902297 11.018813558692607 12.397603780323417
Si 15.641934584643714 14.831043662295288 19.41215803257453
Si 17.765063019435228 13.436383628515642 12.842453529564631
Si 15.799935149403122 11.75565489634682 14.52094732892512
Si 19.309843372276013 19.834340258427748 16.32610908343873
Si 15.369892440736477 18.63615600172935 15.23746976368566
Si 17.803337031865986 16.423500106978587 17.52178938360217
Si 13.04949851696689 18.90861640616643 16.178204296459356
Si 13.480553183676067 13.713123605871433 19.464326352066696
Si 17.154798333427436 13.103307116865738 17.42211253482544
Si 15.467689827186604 16.5803248726663 17.871967483770213
Si 14.24401694192051 20.750645913708535 14.704886583180343
Si 16.996747333092454 12.700803537497647 10.716546851839514
Si 13.15604856455415 17.636906976939102 -2.470635689986477
Si 14.672823350902279 19.47540919659554 12.607311409896962
Si 18.653958560600675 17.670964775915845 15.721058571258235
Si 12.963417844505972 16.88414273541642 17.429000683866263
Si 17.89412317948361 18.792505707532747 17.802793190798727
Si 18.03197411584313 14.562339371746411 19.06419109499498
Si 16.910174054919008 17.246594383217346 14.073164803908936
Si 16.185205571652165 14.968983523757426 13.889398072679276
Si 16.75964410527145 10.06477778621543 15.932665151502032
Si 15.340195943548537 18.905555018602293 17.61889325737208
Si 16.945228509384684 10.86475876146354 18.19727800950812
Si 12.441326159431965 18.966257392596177 13.774627289703238
Si 15.577133317030018 13.759529461787064 15.809215173895879
Si 18.249730703077233 11.664632781994099 14.392824496655788
Si 16.060495327177854 17.709975688896396 11.872819236148628
Si 18.794478048126106 11.337353295091217 16.78856541890485
Si 14.2051962472591 17.20478126058923 13.54913925878174
Si 18.998391493970498 9.535935672769163 15.14295696589219
Si 14.70436124282834 15.53527192192272 11.998264975780419
