33
Energy = -155.64725282 eV
Si 12.586547795802103 12.74485531229869 6.615961014477549
Si 14.216504620924667 16.45309180188215 8.794945690755558
Si 11.127773537200502 12.707922940450349 8.49622565571992
Si 9.634193603077232 10.825013077035132 8.509472072038845
Si 11.604973293329971 9.313280556700825 8.520232244319509
Si 13.331264088714127 10.950232656221843 8.090388657198984
Si 13.814044380791252 14.13224863982329 8.080753440798034
Si 10.576355280469448 14.537045265583307 9.95091353536176
Si 14.904171154155566 10.909910039454296 9.957481161122562
Si 15.238356318955534 15.543891847204055 10.946620575665213
Si 16.12641305446194 14.94707593448325 8.685444445325754
Si 12.280999358765394 11.000018949949576 10.233236477451985
Si 9.767132119118456 11.043785119452732 10.855728613550808
Si 12.98395354181683 14.813443613039391 10.233529558912737
Si 14.911038143782871 13.288760982418713 9.99687521283385
Si 11.754792248132318 8.621593268070681 10.812186442603545
Si 9.449159851017797 13.25988481275481 11.703704882987315
Si 13.47860877666491 7.5750874140594275 12.075145278247708
Si 9.670918080184995 9.007899045799483 12.091096336605943
Si 11.868725525359253 12.947160667963269 11.449714020926145
Si 13.851023659266279 9.92538655998201 11.922503889822357
Si 11.816022274994815 8.747094649642868 13.426677634005273
Si 10.71211395555757 12.654097067679706 13.682599307729687
Si 9.791654023643138 10.482251952233192 14.15305105446
Si 12.605861902489568 11.092524285885114 13.642447948507217
Si 7.75841570740667 10.954446264395598 15.402107047306608
Si 11.742834899595886 9.634586219107948 15.594051499128438
Si 11.665083224639671 13.687154920778376 15.568558591448017
Si 9.266401432156245 12.723796816186088 15.914891892887741
Si 13.18762550553622 11.707409401045075 15.93870384105277
Si 9.725982390840501 10.310397478294622 16.701445868950685
Si 10.213541488792101 14.283595496751927 17.412212180536443
Si 11.22422810538558 12.061770286402451 17.427807270291797
