37
Energy = -173.13222917 eV
Si 10.662725428463153 6.696264300560669 12.697380772157597
Si 12.943821550783655 5.419844079580895 8.248246095484308
Si 8.392151676734 7.996448934024551 12.558382174008567
Si 9.063406832790692 6.503853749986931 10.67360310526147
Si 9.786890323404574 9.933489113149061 13.131403649063293
Si 11.320736570827929 7.144722154904801 8.394700134473402
Si 6.6107861216822865 9.219707025805242 9.063985916861874
Si 6.207166741601437 8.66667885082914 13.315935857304801
Si 7.908218050553459 9.733289544272708 14.789851659956673
Si 13.238887347991103 6.738978265870816 10.183506428064348
Si 11.848027752646024 8.817769325334554 13.069018597816678
Si 13.83185540275253 7.623165446369031 7.8384886381472665
Si 7.0499192924374805 9.672196216612363 11.280669936720368
Si 8.914856772302342 11.882044636334586 14.315265921962862
Si 8.01766077820914 7.309037617739852 8.447890507438025
Si 9.033686204175988 8.912799912221743 10.025718727096924
Si 6.741623279409777 11.317842985687584 13.142729711743188
Si 7.106769190632792 10.918997492846602 7.517528447928054
Si 8.85716412155741 11.500238747111736 11.51968946231492
Si 11.225025721860268 8.020478441848685 10.721100756595403
Si 10.458414643725321 10.706817394821103 8.857430711220198
Si 14.249655974026401 9.115403503947299 9.83371650459168
Si 12.384909682857296 9.534132955013261 8.116828273890322
Si 7.356371159034658 13.99915633280372 10.44482317281784
Si 8.589273883554302 13.718601368449873 12.589557040472938
Si 8.318283001204508 12.110009254059756 9.183627638010675
Si 10.60708738217738 10.561370417474535 6.2042910749382285
Si 12.184469825922015 12.711740664191085 8.721220963500778
Si 10.604398368984265 13.20667873473796 11.36953992983944
Si 9.963422626289429 12.623884481401008 7.358909335551125
Si 12.684856853898511 10.092027784334768 11.280068505463268
Si 14.228621991570945 11.26146142127986 8.529954541943036
Si 12.921283614413056 11.439971170673154 6.587781474402123
Si 9.56370269283105 14.290898839347937 9.559978547763249
Si 12.837925324956947 12.46197556794629 11.07573228603062
Si 11.17013005301612 14.63469419707773 7.742406745413205
Si 8.932491263046169 9.320006573674052 7.425714256074832
