39
Energy = -179.97487624 eV
Si 16.07319014743808 20.149724609344347 14.919746457564067
Si 15.169271305611547 16.62399548032535 13.677930876301762
Si 19.877626584603128 18.988851530095832 16.86197585894426
Si 16.540503357140942 17.710284843702897 15.232622462511054
Si 18.72805631866041 16.5009284583714 15.35143222629004
Si 12.746971889801793 18.436984259837587 17.028392656826906
Si 12.72097679010577 9.420980585599324 13.916048993293847
Si 16.386674763894376 12.627333395641998 13.41625623751595
Si 12.967614307774266 11.866134251868026 14.141214832990732
Si 17.028924708119906 19.23793587158047 17.924975382699937
Si 13.20177243521263 12.257675503534545 16.475326208394694
Si 15.207545438932426 13.453731721357846 17.53871323095644
Si 18.580242720666536 18.195888678501532 13.678714779624473
Si 9.090026253544533 10.589036339029132 12.478849945976854
Si 10.891874118710874 10.94933640812469 13.91031558435727
Si 17.31281896001691 15.055263174477943 14.089733324555073
Si 11.250791582855591 9.611427702850543 11.962561430406428
Si 19.044722787315 20.779169504431106 18.188337340905633
Si 14.136493142584047 13.658571773804116 13.1061246612648
Si 17.808593482910226 18.06027906043123 11.44736757062537
Si 14.584512650874087 11.189486026057512 18.183919422040344
Si 18.136662521768407 20.671724580378935 16.018150866018672
Si 15.61112377597731 15.645392662368852 18.38177087061598
Si 14.899521890307913 18.947525725665823 16.562994055533085
Si 13.450583053238448 15.409961530851763 14.687963381452015
Si 13.630541252054917 16.31075630344697 17.140875028392408
Si 17.972926146995977 13.914604798805058 12.065411576073071
Si 12.954487620225237 14.152280774001682 17.9214393999065
Si 16.002493641417082 18.78107107662928 12.903502549715116
Si 19.954311818006513 19.8883955299046 14.703663020181533
Si 15.439740602889191 14.122897180202983 15.202325884681255
Si 19.060638715514308 17.92566311686631 18.88582338767351
Si 17.91093087749745 19.746182467399855 20.067722360406144
Si 12.087872217214265 11.696785264124577 18.496052088475075
Si 16.604825049455304 15.987126889521049 11.920838388455168
Si 9.513021493532692 9.385184199876365 10.528470426420201
Si 13.708922298797395 12.897686428153678 19.81653651998985
Si 15.627774862114501 13.788969121175217 11.15211315431468
Si 17.514277263450786 16.82292228929139 17.468900616562934
