30
Energy = -140.16656754 eV
Si 10.48154081857948 9.231019617540246 7.022739788688292
Si 12.504634299837079 12.522577535536659 9.252132317149528
Si 12.775772882027304 9.734031551029947 7.959171452869639
Si 8.112381918424472 10.134310502776746 7.027224431328473
Si 9.038136679136056 8.898358380657479 8.961254000785004
Si 12.710085331932682 7.450029953304482 7.1570659594892785
Si 10.53548339906037 7.0158671116995315 8.11619350752795
Si 7.408058745168451 12.35461696062463 7.604681769151509
Si 11.169014157080966 14.475559695632976 8.817295792698987
Si 10.860224277331488 10.609449160537487 9.200416483081145
Si 5.7324221920647265 8.919816664262616 10.458530742108636
Si 14.436198399398092 11.272851502910449 8.565872593370207
Si 9.645021095702184 12.598159725773549 8.490615341423682
Si 7.707201442959336 7.507898308063302 10.273947132152042
Si 13.001842110582723 7.586257224700847 9.521696654471778
Si 10.514269819618262 13.445595898371305 10.837333799450334
Si 8.855108408534988 7.6834487818883765 12.64607983791169
Si 7.097331293991972 10.592576475066702 9.272346045515393
Si 8.528747917317215 11.934602867182099 10.563502010166447
Si 8.540119740036893 13.49744136329528 12.492793032086729
Si 13.592914768542656 9.75452645190714 10.363096410364674
Si 9.855683791238903 9.793963825901573 11.325926236829478
Si 10.902577389845687 7.2461118492262315 10.560753806797058
Si 11.959471245830155 11.437471016543313 11.354166504572609
Si 7.24411236517066 9.2812388848734 12.26924101279796
Si 9.059635190930306 5.800503959256582 11.263926938425458
Si 8.596607921377242 11.14759730960794 12.962166452664547
Si 11.174376432988693 8.265129886428918 12.813421632408192
Si 10.972527862960016 13.080206458377875 13.143500971047484
Si 10.85956042306628 10.599843397758189 13.573969663400824
