32
Energy = -149.68346226 eV
Si 16.067404001336577 12.461155853102238 15.980764558448787
Si 8.447933892497494 12.903364790800296 10.975044343373327
Si 14.02608501615835 12.01233715019542 14.846014218280693
Si 14.468447468203344 10.877770292766687 16.918990018179187
Si 16.168848131883706 12.1801766765578 13.56659326049905
Si 12.694590463534361 13.19438934565605 13.297652972553962
Si 9.611207148336343 12.257605125131375 12.90647621281808
Si 10.636504113543861 14.313132452574001 13.536271207066642
Si 13.79367360675855 9.547850094827272 15.044486461188763
Si 6.9870149024267025 9.945274728421563 13.897718644874631
Si 14.914056433410273 10.267725193334536 13.110223028467328
Si 11.652721030097522 9.324448721104366 13.932316410221416
Si 13.893752205564072 9.962550019433206 11.019927261455921
Si 12.173250406110425 11.08784079995224 12.347513811075613
Si 15.315317594553212 15.097061103207755 10.38658753547593
Si 14.72662686229677 13.369315766439252 12.010764883596144
Si 12.032018467889879 8.636195554005727 11.723774479969284
Si 12.101192792224882 13.001182438943701 9.599255662423417
Si 10.572293943718115 14.353789359095734 11.105438792057582
Si 10.912849698959862 16.36761247852025 9.726794595831775
Si 12.90035847020042 15.31666219076388 10.261661320931697
Si 11.739456039151689 14.729256665782426 7.984920129044975
Si 14.31108252156414 12.14298065094277 10.011060212028033
Si 10.536731748870361 11.553963995160245 10.611418886119882
Si 9.767600300616827 9.17204386834679 11.176501539930051
Si 8.471118822429702 10.879733934784834 9.564558150306699
Si 16.040279961349732 13.31599152015588 8.767832307546513
Si 9.322606001571211 9.954288531650127 13.443249951951767
Si 7.0037955001115595 10.425184224312511 11.557322398107319
Si 14.056532306930729 14.36318402112444 8.282704465407386
Si 7.781272179441383 8.12906865411723 12.5269724321039
Si 7.757287175712395 8.460942883625957 10.111559589634506
