38
Energy = -179.57296631 eV
Si 8.26584002061773 10.306202530498878 5.452338998542669
Si 9.719337372678677 6.590487043191614 5.563164217946165
Si 9.609843598744998 8.723431559885999 6.797074555619684
Si 9.214946716509608 12.626086718137282 5.9631525040046185
Si 10.575717673725384 10.98555015080162 7.255550140603365
Si 9.623891110991092 13.058627478893891 8.357357377079788
Si 9.939129499231225 5.925776053393988 7.839412628770046
Si 12.98511988356037 11.261314743924133 7.402324714792437
Si 5.876946948967938 10.262516934600857 5.751213333604161
Si 7.080699387661362 11.995891318552214 6.901555898772326
Si 7.136450050389612 8.990353781776065 7.310268786168331
Si 12.05785726080878 9.736994770417699 9.104531833423708
Si 10.336510348812208 7.989311206711223 9.199811300027848
Si 7.745287370920103 6.681923914974899 6.9414088963937886
Si 7.046647794615401 12.37954728344109 9.220264223666407
Si 9.787853183893013 10.765339996637278 9.597748427516654
Si 12.022004275509767 13.150126386732667 8.70882458839413
Si 7.605355504879652 9.616794312499044 9.54329817980474
Si 9.802982832402177 4.063905336556061 9.453845257436084
Si 8.194324663474266 7.394632189554611 10.352085207116973
Si 11.799389557985261 5.905090341953626 9.432339480189784
Si 8.177623954440849 14.379636138941049 9.782414242832761
Si 5.768459087329824 10.85017544199317 10.433957809078874
Si 12.039239312615194 7.550273084114997 11.188571156069054
Si 7.692716980542789 5.459993445651967 9.004172998676623
Si 13.726870510269354 11.694381757877439 9.684786139015129
Si 13.637943890071739 9.401527974082324 10.974440152798724
Si 7.751788290983533 8.419268085532693 12.481018257286445
Si 10.049964833947037 8.79285982805445 11.958257087938504
Si 9.867029087605323 5.816444968018777 11.100530310236156
Si 9.136374617482138 12.911718831991521 11.397527663814294
Si 9.40841347175501 8.08759858190402 14.310115054952416
Si 10.956427475010136 6.614433959982314 13.082485077714532
Si 11.270822189280832 12.249990828787604 10.856496506919576
Si 11.907366503076895 10.480943845229344 12.249052266442318
Si 7.399525058868475 10.737125681911099 12.083353317225116
Si 10.338486841228704 10.315428069675715 13.95622326232882
Si 8.659998662841087 12.043481246844147 13.524213970524833
