34
Energy = -160.37072461 eV
Si 10.589840286311926 10.685609166853641 6.5966352711144545
Si 11.509445859511928 12.597783932706568 7.746215930436993
Si 8.972786359701205 11.323416378603316 8.209611642219167
Si 13.737201837529115 13.230313095818175 8.26579085138161
Si 9.50872437751447 13.603322975603632 8.541840259748332
Si 11.250222306192573 9.693906243937121 8.662645473665872
Si 14.85111665085823 11.08177594077677 9.170356596295678
Si 7.4501003235011725 9.77079819150823 9.28376620527082
Si 12.511607338190453 11.540889286457903 9.73959390288273
Si 13.473281106445643 9.048540807477176 9.231727951043968
Si 9.479508892508388 8.304958942312581 9.603492018505278
Si 9.549909272099832 10.680856881756716 10.528367234301845
Si 10.786942342849454 13.05692132283156 10.67751846976817
Si 7.458841002996568 7.332830209102251 9.087598637590752
Si 13.183665085241659 14.086676806153049 10.493685619731341
Si 8.971595539840083 14.729314376066503 10.59235941058067
Si 7.187299141735225 10.914038668625812 11.4424748959782
Si 12.89533034610871 8.506316524261566 11.55414504731648
Si 8.596543011046258 6.972755026063338 11.438099361724523
Si 8.755289549873506 12.690942164199225 11.989882881594951
Si 12.87193525015772 6.337828287181984 12.38672313467673
Si 14.327227127580256 11.876169719357211 11.406800825912793
Si 11.24971118518138 15.415318170120605 11.353343740393257
Si 10.803694965766963 7.356362704143394 12.635823773122903
Si 10.981101080495375 9.887876113376825 12.236844613204038
Si 8.391882102098057 9.113828531975187 12.378920178130494
Si 13.285020852360935 10.501482711158308 13.024321920843937
Si 14.899504323100185 14.021460585952353 12.178844681113208
Si 9.340900138433692 12.87361944376245 14.292932626465308
Si 11.140614166067689 13.833970322814206 13.117112737371734
Si 9.865334752047408 8.894882640096908 14.212684424586614
Si 13.227348654067251 13.04056071468916 13.62417687540666
Si 10.980218206346752 11.066398100542543 14.355421098564682
Si 13.233584576196982 11.245603023670144 15.257569719012526
