39
Energy = -179.19825237 eV
Si 14.849912568012273 14.806029862768554 -2.6551266039689443
Si 17.028990543808796 16.330796805435053 19.857266537207774
Si 15.230563472525551 8.865832227289308 14.082630851008552
Si 19.87583543722773 18.28961291075842 17.323605010675198
Si 16.24926502697852 15.32963950165298 14.877422685356137
Si 20.82879559297994 14.182724361565255 17.479737560736176
Si 20.795897824987367 16.16720001498597 16.318759056184042
Si 14.54289625983566 16.945728608341188 14.653257744069299
Si 11.925105227035676 17.71742686098916 18.223949272254547
Si 22.692051604779664 15.779768556910954 17.938439811611246
Si 15.19434863733281 18.88851305709845 13.477593329060863
Si 12.767165528820835 -5.144757631247182 15.367355911149573
Si 13.425547166983526 10.335401601748051 14.150592778355843
Si 14.960160464813312 15.316609125420026 18.53975199411992
Si 20.620715114099784 16.54260370798335 18.851185162885255
Si 14.686410777233075 21.105249488843494 14.313328000428347
Si 21.67079780672534 19.666154600760855 16.555891750581324
Si 14.950432654672362 16.58255006078199 21.113766335741307
Si 19.354437808631353 17.7066940534261 13.201647543712744
Si 18.810042941423333 15.001738725370123 18.58046819577321
Si 15.678402722364842 14.173305306643531 20.54010042149028
Si 19.033398733483907 19.257398157018027 11.541706177751943
Si 17.117994595470872 15.72093445658672 22.279738996632688
Si 20.768601987909577 18.159310949409107 15.027125379944588
Si 18.018701928133684 14.069835637030767 20.689201803671956
Si 12.639518150945596 22.11358502537749 17.020223421596878
Si 16.958280822161903 17.68324902133064 14.680909989832458
Si 15.44507913335608 18.85125745023957 17.63855287788246
Si 22.92417591979429 17.527976322832888 16.03700619175179
Si 13.22822942238132 8.071474814666269 14.96722384845721
Si 17.680425351440903 15.968240397451138 12.941002364656738
Si 14.754023257020345 20.97062131914041 16.744188024483023
Si 16.954943567719624 15.732177746810144 17.2369698430366
Si 13.482437862025556 18.080042684570543 16.422241548152698
Si 14.14247092704543 17.51616202641515 19.065416064119738
Si 17.053824027784245 18.237255217451967 12.229007669318396
Si 12.423653042959428 20.0010463798685 17.83209335151628
Si 11.429752689420988 9.546637797121551 15.061272553807502
Si 17.527454470068943 17.998143317700364 16.968822283213637
