38
Energy = -178.27501675 eV
Si 9.822439941997304 10.962525970571232 3.4845315202890137
Si 8.882467512953031 8.56288397976048 2.8676272139109313
Si 8.259113067302001 10.383910591248869 5.2015006364368945
Si 10.922938207864178 9.724592162401843 5.174722286207668
Si 5.257738062215408 5.595448905252454 6.314976552004446
Si 9.040611527881708 6.732634283726482 4.32296014272422
Si 7.110108700245251 8.477995577882588 4.36281518541898
Si 11.004049682004409 7.388587477793114 5.575411219357234
Si 9.117144791996624 8.686933370821867 6.822789146006752
Si 10.316032609225534 12.167030020957249 5.825814060853016
Si 7.504627363762057 6.807722100890528 6.244248236699707
Si 7.994240234510336 12.186864636335114 6.7645966306762695
Si 7.4421019004824265 4.532683850008775 7.2539228854126145
Si 3.6396834641160156 6.127673169608432 8.030826169463722
Si 11.953464367825548 10.91408758289623 6.978541302290712
Si 5.313745287834944 8.005949996646676 5.915133479620107
Si 9.327821455014806 5.514542047163553 8.862908803015564
Si 6.566979970419245 8.62543613931398 7.876011813743419
Si 10.654474333704849 7.243018368299373 7.967927820239215
Si 7.150150289020676 10.824844474769154 8.625475914403347
Si 9.76560503678823 10.78172498612536 7.936030724743051
Si 5.206972495744583 10.134008839090203 10.005774169004257
Si 7.33588240591474 6.914390187997378 9.464639461580097
Si 11.475862441017084 8.623608247363551 9.706856017333092
Si 11.192926528454104 5.9316501993381525 10.514797349598572
Si 4.64676331700076 7.9495839900779055 9.217752686060948
Si 8.257002197347191 10.87057750381087 10.745940027105762
Si 8.757096675826299 5.615559952677025 11.212243959914154
Si 9.120834982394651 8.669519328163501 10.266789718807745
Si 5.712250625563291 5.2907340964964735 8.780694807938655
Si 5.987134287563625 7.881750354699064 11.18821434163544
Si 10.708323550922042 10.916347997147954 10.254880344123574
Si 6.345846417882943 10.17899745690727 12.08287602652766
Si 8.794103778319233 7.767486208712699 12.482975719042539
Si 11.49301244162878 8.061620795814527 12.026735892141456
Si 10.013879174293736 9.962157768898862 12.484795959761835
Si 6.526877950167406 8.151187486763034 13.430473096877138
Si 10.549238133727131 6.003275104501191 12.894333889963056
