36
Energy = -170.31339714 eV
Si 10.111205771065533 10.665751816603178 6.454790129638985
Si 12.175988709233767 11.16837872092509 7.524198154646548
Si 12.827797642184708 13.317306568269759 8.179725562917445
Si 10.69760667805306 14.492977818446052 8.15522093407551
Si 9.62204711438032 12.370070488555498 8.045943683676764
Si 13.812982444666606 9.649729812484756 8.27311981444588
Si 10.001570465061993 9.191729437309622 8.34827320078342
Si 12.037795005447961 7.94129013607733 8.553906563892111
Si 7.9536421481335955 12.276827001600045 9.674690284113504
Si 11.218216556565109 12.501761431641778 9.928137565839107
Si 11.760555444137532 9.997212768837157 9.947855116160952
Si 13.659361967655567 13.014025548582456 10.353930287505106
Si 10.370699970098668 14.729358992248766 10.508210885286996
Si 8.61922035189982 9.23456829901411 10.29608280845726
Si 14.05916614043055 10.680143295283596 10.473687177136382
Si 6.563919061875115 10.502230426208222 10.49110823521708
Si 7.9402233571523135 14.66447752063814 10.083436435898696
Si 12.273467223553029 7.547237332921713 10.821099424002748
Si 14.021392361226106 8.436966551308723 12.123770707070994
Si 11.606195648614918 16.0982138890672 12.034560944612569
Si 10.554422643171053 9.146263024680495 11.89430606006176
Si 10.843600288483506 6.708310931492219 12.570046436107432
Si 15.664066412832588 10.124541386359736 12.143510989309759
Si 12.900583492012476 14.127626728192213 12.350976617934567
Si 8.590009526125842 13.546685841964786 11.994083587246829
Si 8.129232826471998 11.268771118674744 12.096526125697826
Si 8.577063564314344 7.85609448627733 12.431374458412375
Si 12.366950515876319 8.212951272554818 13.710165884295757
Si 11.708108818383348 10.707158255962051 13.241800419897507
Si 10.365982779604124 14.488874313014163 13.259898850186502
Si 9.072607948373 9.930608698853344 13.75341847780891
Si 14.036665156812669 11.158245313060517 13.659237119612769
Si 11.569936140431954 12.957937035453417 14.446420519815712
Si 13.90860167771364 13.446011471643617 14.393986896247185
Si 12.774687765687716 9.854214165976682 15.333700564097628
Si 10.622679618619022 11.003701336166376 15.46705231423849
