36
Energy = -171.50790619 eV
Si 10.204367093866932 12.47675394506022 6.718654076292171
Si 12.38885085338298 9.085576997159247 7.781539468606529
Si 12.211350621106453 11.508732710061063 7.760093743917023
Si 13.802001043843095 13.207186348215696 8.316184432543862
Si 10.099464570579789 8.43988024749754 8.054742148592322
Si 9.140936506059973 10.580685235533032 7.743627261140727
Si 9.762071374316758 14.302665637015917 8.397638251364263
Si 11.91013710538312 14.046008275435154 9.480201590124201
Si 10.360374454723845 12.091329084407406 9.308000222852161
Si 13.498288413437372 7.864654262828964 9.619541285068154
Si 12.330738573939382 10.135371773926337 10.077875881110876
Si 7.263034268698743 10.746312552913977 9.095933723513044
Si 8.966234010844817 7.153667523138114 9.977701670604716
Si 14.223536260810596 11.907894538031908 10.263456657350812
Si 9.686069212097836 9.612851406336931 10.201655302417771
Si 14.889858705483508 9.655413955421098 10.354674303210425
Si 8.572814092917731 13.462747418130103 10.346826293199017
Si 7.199996963754744 8.804591608655722 10.335859359185235
Si 6.385684736576257 12.468757933329423 10.468661875325184
Si 10.785178976556587 12.482408037811675 11.66424346203539
Si 7.392017536663661 10.702398666393192 11.70543803013704
Si 11.83102758005504 14.7394470281592 11.775287405987001
Si 15.27999198782283 12.54530206377584 12.345173230620645
Si 14.796534202272072 10.186626465288224 12.628629278504672
Si 9.460122146264043 14.537918784604434 12.30709033046165
Si 10.042187326816817 10.119478011693822 12.53665466360125
Si 12.331083993910337 8.01302964222128 11.777502961811349
Si 10.058128811979314 7.627360903128389 12.148587221044547
Si 12.392068287136375 10.421793934410179 12.564751049282666
Si 8.147220325199596 10.715875364334435 13.93711007207273
Si 13.008169022174977 12.854884559825388 12.848812378655444
Si 9.62036939104513 12.600951933766895 13.832850000753918
Si 13.463984943337795 8.539106832141568 13.882401427736069
Si 9.375097616355772 8.555787178703179 14.37641088587188
Si 11.518389828793568 9.772577185114189 14.722383620890355
Si 11.70014968423298 12.131502477971232 14.741336956555728
