35
Energy = -165.57179302 eV
Si 11.587196042332877 13.162438722568487 7.853312899837655
Si 9.99349304661667 11.422676982057999 7.9143565789351005
Si 10.362437910680038 9.079690047956454 8.600915908774986
Si 13.342190917010647 11.903171419586721 8.749380108261242
Si 12.485048477527235 9.874309418538141 9.55926956524854
Si 11.078922067115966 14.235177985618575 9.921677853553941
Si 8.419868795012237 12.425008188270448 9.28857591954986
Si 8.752800115984632 8.7627466187819 10.594668493074558
Si 8.68144927999142 14.671579273500445 9.976191600796243
Si 15.605536934424991 12.518350829277521 9.08559439925565
Si 12.053179465725641 12.215882424982176 10.861591774648053
Si 10.150253260241692 10.870477939878636 10.33068861087452
Si 12.925842873770996 15.47074223822784 10.96373245933369
Si 7.588320058095135 10.905298908629131 10.857142503476968
Si 13.970275353332038 9.24180675198435 11.379637327625847
Si 14.316604669377837 13.373528789919542 10.932254915779911
Si 15.519057761328746 11.061764282183464 10.948256075004918
Si 17.490401753266532 11.74794669102678 12.156890436529434
Si 12.21171069282099 10.556928695004014 12.566489403372044
Si 8.832357684023723 11.424246958049496 13.498725573110729
Si 6.6129535636872685 11.930898537219361 12.7549455310918
Si 8.152495994045202 13.55119283802784 11.97591597774169
Si 12.068367355987073 14.164909816269796 12.706425977875037
Si 14.21300740548352 9.632929742627846 13.866980578465977
Si 16.340144104432035 10.591703588897618 13.810312189067934
Si 10.004117331637215 9.635527325413026 12.491005885611948
Si 15.578535128010131 12.897109050642266 13.05332371882459
Si 9.930787589056663 13.797226225343605 13.494852737654591
Si 12.224119009309396 11.293448027997512 14.846560054648403
Si 12.843681156351957 13.57173140940722 14.834575773669918
Si 15.097584888208191 11.552409201531347 15.523170660091152
Si 13.557503001498452 9.81882429037293 16.170291997246053
Si 10.622999385523622 14.44121398971596 15.718561954210921
Si 15.18084046455054 13.922648328109268 15.21402717072648
Si 10.061259781176247 12.129797780020176 15.355040703666836
