33
Energy = -156.92167445 eV
Si 9.45603470752946 10.023722378489136 6.55753083132526
Si 12.911663424602418 12.516388497639094 6.990422064806061
Si 10.55463210167972 12.03642424135899 7.237468327641116
Si 9.239732139591279 13.388292952121011 8.546308010900207
Si 8.250564587332983 10.208272793657478 8.645555396293021
Si 10.824059097449993 9.458984361624431 8.342828987736956
Si 12.708473083933885 13.658409962688918 9.084605720319788
Si 12.72433205659244 10.999608544675354 8.844926303405767
Si 7.256311820005099 12.29212802701441 9.323654911951486
Si 10.745771284710509 14.76443372026685 9.82083183737683
Si 10.814067408990134 12.158281812694666 9.952660741916612
Si 7.987756569027817 8.257216508228451 10.080396672770895
Si 10.393772483546757 7.581912840150569 9.809940759261435
Si 14.894741783579061 10.799091862178917 10.09274768373802
Si 14.2604399109563 12.995994663014642 10.792242393647259
Si 9.74539371539591 9.937077801748666 10.601734018452113
Si 12.938498278339747 10.883957145867795 11.543697791358692
Si 11.778632278280396 8.664879313875726 11.434649033986355
Si 8.03875790903546 11.87548117139405 11.51630576428095
Si 14.924811578919707 9.746792860434569 12.487161210780794
Si 14.6580039655059 14.00948249608088 12.908034192572874
Si 7.955326066038479 9.576726608756505 12.13241791291325
Si 10.399571477304292 13.537004153227873 11.862095107930854
Si 10.835614984302472 10.27003639073607 13.020513412258218
Si 12.525085949056264 13.035251770416595 12.7526303475533
Si 14.689527765656882 11.750690588438369 13.752225604697275
Si 11.254038359287911 7.991866622143849 13.707027332168591
Si 13.0738053104304 9.520483733727682 14.171530525517479
Si 8.496561045539366 13.37625770010004 13.267786762722167
Si 9.015650759127828 9.131366984633924 14.325975776588876
Si 9.570265633537494 11.560047152005474 14.509413023657803
Si 11.99263337753444 11.799802538213338 14.749526457851243
Si 13.857675530415293 10.965838245632085 15.907361524854382
