38
Energy = -178.35996348 eV
Si 6.883452741791211 8.958351105620569 11.542027248336426
Si 15.693225902806022 9.815870827196678 10.918289104091581
Si 10.210006177237881 12.220579893465283 11.369546657228033
Si 13.439886732893306 10.435486430326826 7.868445067983908
Si 14.912885650999245 13.402185962374885 11.93182651249365
Si 11.378436291549857 8.954423051132094 14.138679739416775
Si 13.733039287111374 8.725666678934672 14.674655438589552
Si 10.616398309376951 10.911192951726312 15.366623654488013
Si 12.224439684917384 15.462491503067326 10.67477896523375
Si 12.931791820005483 14.388152054215626 8.583751813045774
Si 15.76363349178097 11.39059794901492 12.866708545281687
Si 10.070520297106427 8.573685099106873 8.638963611898754
Si 11.570073674107693 11.24660479812791 13.029533606890219
Si 12.414716005368811 8.567042296377654 9.215603919283094
Si 11.812143564534958 9.276466141061587 11.534687143113437
Si 15.106404608015298 13.782619220688487 9.5616245042874
Si 14.757530404895038 8.542523800192622 8.760895660024934
Si 12.863231898380386 13.006307369577184 10.63726466424188
Si 10.007681296315779 14.636878691454857 11.00997240543835
Si 7.834958564603798 12.063268250358462 8.667704454441804
Si 11.827544603338266 12.235692285458418 7.518021390213982
Si 7.957777911141219 12.96926016642335 12.280385550972898
Si 9.503533006129604 8.928592267667122 11.00721014544585
Si 13.929240300419728 11.108154477501657 14.39958532713614
Si 13.97150631174563 9.507401917819482 12.482231295624356
Si 12.124643780816381 12.902445178524436 14.730307621027972
Si 9.87165348865719 13.940440905259097 13.332710967041022
Si 14.715099006094674 11.482539277020194 9.611494926284164
Si 11.832352229310303 10.949019925523078 9.741247156955577
Si 9.026769382016322 10.395178698074044 13.644177290338826
Si 12.953774499584506 14.38176551388831 12.761246207238344
Si 9.274885662098834 8.046815170707049 13.243768802548963
Si 7.708404389343196 14.223047088818069 10.126832000709278
Si 9.783964651426677 13.55223940485637 8.877216064117734
Si 8.208839232745825 10.973299674911214 10.808350795681115
Si 7.057687860774736 8.739842101958429 13.989524930582741
Si 6.800563606605917 10.99727415697993 12.946841935751847
Si 9.917313448067857 10.926117594654164 8.176343504776566
