33
Energy = -155.65857849 eV
Si 14.702980020008082 12.835576125112924 7.008310230395819
Si 11.436504788953458 15.740697179671857 8.234097921648829
Si 12.672323871347245 11.953849722530475 7.84990051639372
Si 10.90761683220853 13.443170560996412 8.207497823455588
Si 13.504757510265767 14.56143913671548 8.274120659159315
Si 12.748302775569028 7.996800666271605 9.172029828217678
Si 12.246553068727255 10.373139661948558 9.61345722063801
Si 14.833353924238857 12.793907588651344 9.42052795807818
Si 10.442939853459285 8.45855993691468 9.472970708000654
Si 8.325971741400025 9.01484006211198 10.14928490954432
Si 9.106362715016314 12.932171799031552 9.605057941052484
Si 9.957198253660993 10.81455341888902 10.339475243861228
Si 10.884291691714301 14.62765579312988 10.380521082084783
Si 14.718464926852075 14.993779610625458 10.278411406603084
Si 13.651679614547998 11.575057268796412 11.073436173113144
Si 8.653074951523646 14.672348177481577 11.225203373814976
Si 9.846720469461431 8.823995978295805 12.031686221636235
Si 12.914008756754507 13.814705622988365 11.465700793697144
Si 12.202114046198066 8.497782517732102 11.406367152837358
Si 14.878231089666032 10.597124455126597 12.871308068454162
Si 10.218436700977357 13.575228699659649 12.619746774060488
Si 13.658687382443036 8.436354630843658 13.298354349162283
Si 12.591958840401459 13.717930936177526 13.822900812689255
Si 10.34164076747447 11.175038450217293 12.807310077600576
Si 12.508655733723915 10.605009189801557 13.60242412298513
Si 14.181460169083735 12.15521668442138 14.622228113069868
Si 10.773903581264177 14.852006095219576 14.644429302566342
Si 12.304236628399405 8.783836002505895 15.354438695632041
Si 8.721111204038879 11.282281605547295 14.57820198675559
Si 12.872182337171477 10.92452551097036 16.139183989970697
Si 10.261563384983024 12.76073128152814 15.619728722557685
Si 10.392421702020254 10.172359077278044 15.837720700707232
Si 11.126345679599597 11.62438156596088 17.560022132710117
