36
Energy = -171.07392071 eV
Si 10.428136193090797 13.624608877528097 7.165777458447054
Si 10.201398594435302 11.406713581099151 6.22941119040713
Si 12.412729450602157 14.844557095019388 7.75938640222469
Si 12.091030912954942 10.78560706873925 7.4750539443912025
Si 13.140570647259572 12.660579388719755 8.476788507337599
Si 8.991602794952135 13.285033774716089 9.013420206258298
Si 9.517154383838287 11.054728070947284 8.49359139619857
Si 11.343770453902147 13.946249718683257 9.672921765899392
Si 12.565884757561347 9.286182590545826 9.217447594770096
Si 11.426854490480759 11.386503485856112 9.981015719392948
Si 11.978493782522099 7.302056503977336 10.305540235889488
Si 14.801641609214784 11.996711720427452 10.130542380383751
Si 14.671817075488228 9.666996978036074 10.24276782463002
Si 8.41621036768534 9.572065304257643 9.963786151059603
Si 7.3734620649035625 13.877586178115228 10.649813546159534
Si 9.910156575038705 8.151642938459439 10.980130066146893
Si 13.19221251492212 11.116467907156384 11.80771087263226
Si 6.785491098512455 11.788672726008192 11.652667884020378
Si 6.349034805724924 9.584153675961884 11.013164260133587
Si 15.467379733465823 8.180696853494386 11.929834516558282
Si 9.316944351173765 13.667984469092298 11.888290682826252
Si 11.296254714036914 14.918483673976615 11.830183914996809
Si 13.099185205559989 8.592699138242933 12.025809442551697
Si 10.040967197540981 10.375114886685816 12.037715240896837
Si 15.720194575439631 10.24529254294809 13.09755884384156
Si 15.431802860801664 12.419447293516216 12.350294617139884
Si 7.6135453122219765 9.69919203110709 13.05728121597549
Si 9.396692810684863 8.160760008200375 13.315117143437329
Si 8.915733940810707 12.039025322909993 13.542812065166977
Si 6.660661149755467 11.652415343125382 14.062710108263591
Si 11.540629133797855 9.24758686543036 13.720194634295995
Si 12.471266579411525 13.178759726769641 12.946577992683626
Si 11.13622449337339 11.733219023130449 14.25410858131085
Si 14.124803781285939 11.255656139543246 14.414253590095138
Si 14.474521648533885 13.618914425105906 14.208740589257784
Si 12.316302996049112 10.298397729500989 15.708342471353514
