35
Energy = -166.48844692 eV
Si 10.002561429978869 13.834815943042175 8.086479379845242
Si 10.773092660622147 11.632191072191338 8.057265892264773
Si 13.078500215262098 11.451845824496413 8.417340311431674
Si 9.768534462434113 9.611571795966201 8.555802509351356
Si 14.09502887761424 13.521261800963325 8.72662957043387
Si 13.555175262745681 9.317482339858973 9.179897049246133
Si 11.877635121493965 13.644804265017239 9.556493724522351
Si 11.482276768504581 8.084243829505827 9.452142139445778
Si 8.353291049336097 13.209582083723337 9.72553200846522
Si 11.540849103402813 10.442367896172922 10.27304550682462
Si 8.25515225932488 10.61092128464471 10.096952316684776
Si 6.318578310998185 12.001556973473674 10.04894456398306
Si 15.045734298110087 12.621256739352658 10.730011277893018
Si 14.616908863607994 9.991286969273139 11.21573210217342
Si 11.262493265182272 14.214237451526238 11.809460105406604
Si 8.893396164232108 14.38742997109949 11.642650698760768
Si 16.761002281400916 10.952109602687248 11.008294288572415
Si 13.538437830334834 8.637142183927109 12.79519515201635
Si 9.17929560150821 10.549960523614512 12.259738098379989
Si 7.5883356713652566 12.299034628157493 12.148525299754796
Si 15.507906451868648 14.012616913563937 12.617308064425327
Si 16.145312320702015 11.814010704706954 13.159069218702292
Si 11.135563638257672 11.76970802347548 12.812840491433894
Si 11.429782247025242 8.50168917170006 11.848019173899901
Si 13.542364017648866 12.076902970250098 12.607653412679104
Si 7.85648952574778 14.110127685199537 13.701096635627136
Si 11.554597255408803 15.812554450650094 13.532624534373795
Si 13.434951266732057 14.408431521771506 13.716182408215888
Si 13.513825268292303 8.82975752447827 15.15526892066625
Si 10.211880552599945 13.800490506738301 14.137047048229364
Si 14.531167563515801 10.875952271230048 14.554324375496154
Si 11.487621958205875 9.900423092777226 14.42065136866598
Si 9.713367614448137 8.58565208461044 13.470562427108932
Si 13.211113297643184 12.682611605137746 15.201265189203353
Si 10.980197006491874 12.046387777063666 15.52237421786363
