34
Energy = -160.95442171 eV
Si 10.55092056658854 9.446288500831946 7.019883408303583
Si 9.276612434156004 11.53340514628451 6.9403323538400405
Si 13.283687249430123 12.266272371333647 7.174475959973104
Si 9.812247576237704 7.606840634859643 8.378952126691653
Si 11.113218383231539 12.970085350336934 7.775340087541576
Si 12.606535433024586 10.11185909253689 7.975244003868373
Si 10.350603656040501 10.916281444842916 9.064458527476091
Si 13.558655063440995 8.255520492756201 9.05570440668011
Si 7.559446710658865 8.448237546785476 8.8011790391381
Si 7.828956536206626 10.880933839364735 8.71569372867707
Si 11.44353149751542 14.89579796627619 9.200886790051728
Si 11.43266676109908 7.679565758297444 10.25375817387529
Si 9.409618157093755 9.197131511099096 10.306185048541947
Si 13.307061908688473 13.156873827895831 9.37715734339489
Si 12.378324453206455 9.92746951592238 10.525291987129291
Si 9.732753820143552 14.588073447818925 10.970094966336362
Si 7.003466774289372 9.406000834433852 10.990745166446104
Si 11.169320254285347 12.680789563951816 10.482364498542825
Si 13.257479222094958 8.573971510590079 12.395825560042216
Si 6.438769643910038 11.722359094725581 10.41666147394966
Si 14.858584244346803 9.347051778629913 10.811180631425279
Si 10.30682559748873 10.94234373652799 12.383940559257598
Si 13.898503036002268 11.677536338796891 11.11934645988595
Si 8.558290196921444 12.508820012408913 11.161031137387699
Si 8.488509972976141 9.253279656538002 12.85050462309854
Si 10.2291648187846 14.967410887207443 13.365573750951217
Si 11.830044967826128 6.651247787516982 12.391130204824844
Si 11.601092055774014 13.102869710363008 12.80322107074745
Si 9.081399206022283 12.879633286708547 13.476944203027141
Si 10.588027473479025 8.366523461745953 13.501921385411162
Si 8.95467081561615 10.769812086318304 14.581553103030712
Si 13.74372650468936 12.267074911318545 13.428449126805024
Si 12.360956324936176 10.345463806020502 13.714676820380511
Si 10.920746269404527 9.591592674564032 15.524709858876122
