32
Energy = -148.10536254 eV
Si 17.55948018634776 11.69324606965503 14.141781769398733
Si 17.61936930894472 13.510315992291982 12.58839657511668
Si 14.631941964670752 9.479479881903934 11.700745529705358
Si 13.469077529175838 8.569133082474439 9.85601603413246
Si 15.193934979425148 11.85691339696158 14.873149618399962
Si 15.890225067278315 11.43400442335304 12.466245360195861
Si 12.569328771441839 10.57963334270839 10.755757100665273
Si 12.400697025066549 7.770234793816572 11.947427965455534
Si 15.785516476349756 14.049150543816552 14.172156088740708
Si 12.85056067663049 9.908575729837034 13.138439689262828
Si 14.607790404751073 13.74409322881946 9.25526002865774
Si 12.71019294272338 11.62535789333296 14.785972224353571
Si 14.697381251174972 15.86173725245189 10.868097526372706
Si 13.754768664549614 13.010532894930803 13.117871137250866
Si 12.716830200188522 13.039288149098091 10.873935159435488
Si 15.512880272885763 13.656225847529065 11.47219124390614
Si 15.267178819489185 16.282566457890766 14.89528692287374
Si 10.741581330798073 9.657778554229205 11.928095943880916
Si 13.44772664574565 15.632263641960042 16.34996836975339
Si 10.570665774099965 11.590054584231003 13.363836982579725
Si 14.510532290144553 16.023728470806137 8.545807759374705
Si 10.06247481459272 14.413954737322666 14.449321762666866
Si 12.063399152497217 15.25377954735306 11.96494979024459
Si 13.326632654060642 15.266768283383922 13.966204717198691
Si 12.083393981356085 13.836176259977789 15.703213485455965
Si 12.50850727370521 15.22896992269184 9.609468515511882
Si 9.792772219109963 13.874348239637058 16.709995296988478
Si 10.371065921034027 13.121384063118725 11.519566312661304
Si 9.627588010749436 15.3811417382108 12.333719562522136
Si 8.943391311331343 12.227268432579164 15.00319199888082
Si 8.898367885740397 11.788717830989635 17.24985671145825
Si 8.321146696528524 13.20015275238297 12.838380468138041
