33
Energy = -156.28189683 eV
Si 9.30954199013896 10.524628993268951 7.1717653861871815
Si 10.315339772966999 8.492164424855066 7.614870286959088
Si 12.864879182650593 12.917201709747111 7.409245587893268
Si 11.533156981504256 10.956622797733823 8.089568427442591
Si 8.459828772471418 9.959653991370425 9.276694135937845
Si 12.719964544218042 8.583751878538703 7.894706817160675
Si 14.068048355456895 12.428660878304617 9.510059560741665
Si 8.7951052632139 13.757762052382075 9.319848174222649
Si 9.899802794136994 6.420742013864104 8.705591943708582
Si 11.30917395287288 13.760902772653251 8.95239929413057
Si 10.245461625410915 9.411719901636497 10.90553843783029
Si 13.538767227235663 10.12783109428676 9.484542047326677
Si 7.534379754955003 11.9410064452565 10.126342140156327
Si 11.619163791075152 7.676037669987687 9.886568572029184
Si 8.493448708022353 7.747633804126067 10.102647262765693
Si 11.306138923816421 11.797804695509514 10.365567144347658
Si 13.7781794659087 9.002743525368512 11.501198672079324
Si 9.367045568807688 12.691605098697401 11.562011311610247
Si 11.152235596791567 14.79372966618021 11.04982167163772
Si 8.85372192993545 15.162691588132331 11.26118208023579
Si 11.926039424008623 10.515282327441444 12.405501808925289
Si 13.285265937089275 12.47468203147225 11.807551908074043
Si 13.073139735692486 6.735624885447139 11.531841137013581
Si 14.305490178951699 10.631665044753005 13.17576840589172
Si 7.205459074449636 11.907469883294869 12.553083493772757
Si 8.901160613203746 10.266918134441578 12.90527730100049
Si 11.482411889725913 8.010517731014119 12.733323412304394
Si 12.513761719277694 14.443767629054927 12.938954619468099
Si 9.006730170792679 7.9093638315326835 12.507314602764657
Si 10.589631277812725 13.206204513041333 13.624757557113266
Si 10.562379247046344 11.007755825131825 14.406993579664436
Si 8.312245714297637 14.002933372923927 13.401771812782515
Si 12.415068791488318 9.47508776397807 14.559859382248964
