37
Energy = -172.04480993 eV
Si 14.323356611248043 16.565238977879467 18.114293256779128
Si 10.403241768983289 14.164364030423569 15.50083664934122
Si 17.79724972369847 13.324759365883747 14.438280193700798
Si 16.743739140295805 9.398307571190486 13.958236615179745
Si 20.028099658378018 12.435216716956079 14.971074905954922
Si 17.644987107967005 16.45044734251649 16.515925739902777
Si 13.743663402849764 19.7411738260323 13.146773643062193
Si 15.727350383071306 16.52512457344731 11.881899029061671
Si 11.925198671982386 13.14680381228067 17.050760834470147
Si 15.196543044214131 13.189938872041814 11.858726665485229
Si 14.124179344480908 16.65532960234933 15.536858973390233
Si 19.594306641868137 17.035089509477125 17.91236966067589
Si 18.235338524549224 10.933166416135398 14.718884680587939
Si 19.033360939916335 13.992972096325385 16.48257189265276
Si 16.624947413130645 14.718480878046025 13.036476604962647
Si 13.563136014099591 17.36433469719638 13.203469713470838
Si 14.186540158310137 19.05184450187437 15.432231633728872
Si 12.199899821049863 15.66972347767166 16.703701790812048
Si 14.838599988435227 15.0160459748802 10.124867899366462
Si 17.548625197004075 16.648910005581122 18.998820038655907
Si 10.250753282295866 12.71931874684956 13.580444811309533
Si 16.10759374684749 18.131007821695178 17.861014165626603
Si 13.227357731462718 14.308235172075678 18.60672695843444
Si 19.976779638207198 16.114916937859128 15.794745876858913
Si 12.074545393749728 16.403195462979056 18.967845995903442
Si 14.156572109483568 13.120478528931041 14.010871890015574
Si 16.726724138690123 14.29418066445398 17.03214242328444
Si 16.050013175395218 20.07994604214441 16.56049125215901
Si 16.552236854949747 18.162617961986918 15.22907326000942
Si 15.517041504846876 14.678755515945948 19.061935483095635
Si 11.988726244434668 14.415958583452076 13.436588806546563
Si 15.82012055308738 18.587469803250578 12.975592026062998
Si 15.44415358450441 14.714541132679644 15.130390376590631
Si 13.288211515588284 15.525880368302712 11.757924345009952
Si 12.17480740479495 12.205823803215877 14.871677223372066
Si 11.181472549357172 16.336898122508835 14.66983840402167
Si 16.128215563331285 11.612804492104027 13.587230135891108
