34
Energy = -160.86012224 eV
Si 10.470397754131044 7.111141965953646 12.4411463281227
Si 9.683482080274654 7.975620766439086 14.546017032478323
Si 12.382895020352281 8.242690326406326 13.252576789737441
Si 12.462585666794823 8.95679762754453 15.498131189756437
Si 11.41902264623008 10.629269679441519 9.238018353136315
Si 10.603244802663257 8.271674255745634 16.756385070800064
Si 8.312842620116685 9.825150840288707 14.098087015200596
Si 9.961127176843277 9.459180509843057 12.386786326109814
Si 9.79443010641905 8.869735420174656 8.702764343798615
Si 9.21305932518792 10.676431838826206 10.176306722387508
Si 14.009101830249653 9.613305994406174 12.21020982993315
Si 14.335943740130562 11.192223577274733 13.990540719235103
Si 13.650730386058884 10.622963559493689 10.012437940039439
Si 12.021171734362415 11.690694550905258 15.06605183762919
Si 13.888264857128323 10.751929222512745 16.256622725251507
Si 10.104371784007093 10.293921504451786 15.591256749093912
Si 11.916934024018225 10.731468448966217 12.860518180734507
Si 12.725749849611985 15.538905043824045 9.5631454305381
Si 10.58467457015449 16.126044053190103 10.424097786799592
Si 14.360359741446949 15.288127291511184 11.25402002362054
Si 13.958188924683506 15.484198642563035 13.684812273395965
Si 13.286025829175381 13.992582668960145 7.817294299582796
Si 11.9770284835836 15.132119942641078 12.00218437199082
Si 10.20826686593026 13.695436674530903 10.26965585580631
Si 11.991752304998533 12.444569809794338 11.210637830644353
Si 9.518950784535978 12.866942951630461 6.350480676295232
Si 8.590213113474784 12.816913941794965 8.505301794132107
Si 15.97042890704542 13.585995766439904 10.996883174156318
Si 14.98909579618888 13.334823708078845 13.166428357483571
Si 14.04155044336358 12.964961845755411 9.818057878620728
Si 12.535988846243926 13.41886145015187 13.470710919365471
Si 11.180514610733388 12.842002830861771 8.151744868336468
Si 8.014173850722914 12.664164626605022 10.745112897579256
Si 9.72605636725911 10.777773507114347 7.37419925232747
