33
Energy = -155.66733504 eV
Si 9.142216823800164 10.908859931367703 6.338383320246996
Si 8.228062192786467 12.9275661935117 7.488217438355162
Si 11.286552981277229 10.902838369312112 7.254331245856024
Si 12.00596273736076 12.617574444449138 8.692311179723783
Si 12.27193947584643 8.970249273427887 8.099133085060421
Si 9.43738546732079 9.195002701640009 7.955090538384543
Si 10.69933664576244 7.158307972241732 8.154209002967844
Si 9.89411989667223 13.721752641922192 9.025540278073294
Si 14.326693371598559 9.111780691749354 9.305222607934214
Si 8.001025019293282 12.205482822444942 9.702982487736067
Si 13.618119371749112 11.362180211640608 9.97953049002637
Si 9.558343283273492 15.758136699724059 10.287183900641331
Si 8.750178410016654 9.979265387871168 10.071304448567103
Si 11.002391357922457 10.733854559154775 9.86635928753449
Si 10.487303520111846 7.799951174021621 10.488471843391858
Si 12.555349636413714 9.104204560115766 10.916974770757081
Si 11.76196764656088 12.743083577736213 11.763709341381789
Si 11.497895039532162 15.01298972872919 11.45585822669356
Si 9.172631350234248 6.627719002514376 12.231760833688725
Si 8.62740092676289 13.76028558611188 11.274499533582398
Si 10.95156965002636 7.789599032288988 13.055316626716069
Si 8.831630603438713 9.06907875211332 12.24556903558254
Si 14.152521466023897 12.54863720390374 11.94118909274644
Si 13.151858119710656 9.773246903074904 13.191980997598945
Si 10.810602064226025 10.55717279819511 12.421649009636036
Si 13.512663563354907 14.822618081015047 12.652717258517137
Si 9.647979655750673 12.827137954196747 13.148412495526488
Si 14.878599360261502 11.35234805476056 13.860640037721076
Si 12.39873664498788 8.209581910131826 14.843403831820375
Si 9.028557050385224 10.79975817433444 14.191982722490184
Si 12.71667678851609 12.201221352316587 14.293062364579297
Si 11.464730643457498 14.239504672105687 14.036070252505102
Si 11.280891239523516 10.360901585835848 14.918824417916795
