36
Energy = -171.19105335 eV
Si 10.715779424238953 9.835876427559803 7.844049737871371
Si 11.569135670639906 12.18348886305526 8.18691024455252
Si 8.834705714915803 9.804629519416505 9.500703753323007
Si 7.8131750469990395 11.928643980919508 10.24391119797851
Si 12.383544959601645 8.63439183711626 9.246657350667295
Si 13.851510905159316 11.657711211804875 9.093711948794189
Si 10.102394417427837 12.806135716057273 10.090274624607336
Si 14.693622518002016 9.376651340167223 9.390245811978843
Si 15.278130378918945 13.193628913638804 10.272940971147799
Si 11.185855249213628 10.617579293212122 10.075373116956234
Si 12.189845811874534 16.132738528466206 10.989057365141326
Si 9.424495975388636 8.155042261251003 11.212852059066204
Si 16.953611829690967 12.659446461246056 12.035574333028748
Si 14.083145047017151 14.838981248392836 11.497086821863672
Si 11.34126340022578 6.938328927064493 10.619198984887763
Si 9.429436423666697 10.989429570859539 11.646476272808131
Si 13.27420873659953 12.369882418454619 11.413755773274215
Si 14.957772985918004 11.71549237340259 12.921020162412304
Si 15.589435667046201 14.241874011506255 13.251486398789925
Si 11.476995671516327 13.906806183150724 11.723223820372237
Si 13.254299634640148 9.987980443682876 11.149960704019666
Si 8.995794367044345 7.6678229413351735 13.563920671479234
Si 10.050430242432686 9.831929806845427 13.589878366869668
Si 12.543011017288393 9.594850423649532 13.356705290993922
Si 12.32006919728592 16.664939935277236 13.300645300984034
Si 11.323624719863775 7.628212705000712 12.907108114212358
Si 13.787132592540575 13.067055738524681 14.649142193540456
Si 15.41712673804133 14.519644378341212 15.646143805681577
Si 14.011214949469077 10.574230671401564 15.022550291227795
Si 11.505922913638459 13.240402926896527 14.033994190939731
Si 12.945723784901276 18.400543947284802 14.955783693176546
Si 13.66830885643908 16.041710527917534 15.212634996280947
Si 10.593312183090013 17.676250945999488 14.750133530945114
Si 11.359038353111744 15.364981888317446 15.03955735788408
Si 11.41453833082605 11.111279775075738 15.12867973603964
Si 11.98225664929541 16.961274221677975 16.758521370173312
