31
Energy = -147.16121665 eV
Si 10.784009756203904 12.073258701839837 6.46898948847968
Si 12.471052319350237 12.97085246921258 7.965090066528294
Si 9.432873045828641 12.316400914051323 8.4243129426033
Si 10.799832334835633 10.214626166008175 8.001555422584008
Si 11.796765199083225 14.898970671106282 9.186690996182136
Si 9.592748500757676 8.269622701314612 8.815313629620585
Si 14.21107889940693 11.967488627073745 9.185238580294804
Si 8.615245868064614 10.387318502897438 9.372625575055448
Si 9.997095969232516 13.717655225047817 10.215483006423558
Si 14.689762032961 9.661237400943605 9.726041789541418
Si 12.388380345593111 9.943942084687787 9.66318424272734
Si 12.200340326957553 12.801379335949932 10.480203213022548
Si 13.06209205703364 15.069924915789386 11.178426978296011
Si 14.608586594379831 13.344846641465882 11.06504454157615
Si 10.797612151928085 8.909132681333567 10.993760025701883
Si 14.085328360410466 10.256518965760364 12.004226191194403
Si 9.237349324385947 10.525884588881022 11.642057795399472
Si 15.25184943619132 12.130596044354306 12.948306538018498
Si 9.335362700979092 14.435324425928219 12.388867572295034
Si 11.723646186417232 11.289870907974917 12.3568273878225
Si 11.623879282222008 14.494428556646856 13.025422808575655
Si 11.72771644792407 8.804070026500211 13.22215764908611
Si 14.010441354374096 8.767035853049208 13.923629936626275
Si 9.590815265092422 12.271293388138156 13.378624041728816
Si 8.042234226968173 10.472060422134302 13.672603740175923
Si 13.140677110069216 12.672400827916501 13.9245007622188
Si 12.649691567753644 10.459040243945207 15.000498071312917
Si 10.097071003389566 9.721538249091763 14.624723934764928
Si 12.310550347449025 14.445967184936443 15.308931535396681
Si 10.976371857628346 12.476724416315273 15.38302742949267
Si 11.007333810507564 10.48838254308391 16.71142779063294
