30
Energy = -139.0949325 eV
Si 9.834530941245713 10.660343127967122 5.190599245346813
Si 9.485341510440442 11.67105866777863 7.27786368156447
Si 8.023824689801298 9.533013454658343 6.496085177410955
Si 11.622862826728454 10.049087558171157 6.661721073682588
Si 14.475196318118382 10.021113745043003 9.6482872953481
Si 13.256772309647948 11.318605302214653 7.942170483075307
Si 12.16527791570606 13.328885100413771 8.387187610749
Si 11.193501541721504 8.437488986465539 8.292852844556606
Si 8.87573319389222 8.62090957320334 8.471984999704224
Si 7.4720907795479015 11.002785803351845 8.31968191689133
Si 8.716574907303643 8.37622672290973 10.783790658424335
Si 14.044083843306042 11.951010959153688 10.958679608049374
Si 11.064719551982662 10.942372852381173 8.936153276065937
Si 13.584715581862426 14.159002442584942 10.158929979204444
Si 12.335692049822017 9.142749992543152 10.199702206868539
Si 6.425781153667795 11.195261269033105 12.541594688836533
Si 10.225644319560377 11.548698912582577 11.053765350754151
Si 6.683602854602712 8.880128421335556 11.898678879782894
Si 12.233951464068682 15.413236034426149 11.835577724408957
Si 7.97779764832517 10.820106031150361 10.759048046483336
Si 11.881914659969775 13.086918027681564 11.523783261735282
Si 9.303338937291931 6.539747475448117 12.242112048260932
Si 7.695363398922572 7.655001311736105 13.705723091109766
Si 8.189429183742114 9.954888116365302 13.610847498601878
Si 10.48516545476011 10.446244986952712 13.11954426163061
Si 11.028047460975232 8.420889391341747 12.038281169026407
Si 11.266945544807568 6.550121479691171 13.407474444855204
Si 13.487963116349562 11.953504990701571 13.186086653842372
Si 12.3548522070511 13.913155721234396 13.768180113876882
Si 11.809913164462927 11.608072071163276 14.784241239536
