35
Energy = -165.96645808 eV
Si 8.206026194383846 11.496690560482172 8.79490426405013
Si 10.045112617353752 10.32758242578907 7.842274000346863
Si 11.388661943757999 8.807295805118322 6.646029765487982
Si 14.114732990440563 14.613698788377421 8.95650608265271
Si 12.35009208084178 16.46503584858411 8.837989222863882
Si 11.957340694850965 13.550838491672309 9.37004044673256
Si 8.000507097317008 9.220743117668627 9.238240715648736
Si 9.878423435353128 7.832858547742444 8.149773808057407
Si 11.380121738002083 11.308782880504763 9.955502645099548
Si 10.177712333693387 15.212796850154648 9.443893173148192
Si 11.948610173084404 9.082415080987934 9.067330719760427
Si 8.43908105289207 6.924131449686184 9.798873476988604
Si 13.976020657535908 16.48056308503879 10.689540551917034
Si 13.615613840920108 14.068432176839083 11.22615396842059
Si 11.250457049188844 17.011432312402327 10.911430605873422
Si 9.27430741888898 10.720337900484934 10.882645795655137
Si 10.121855069707843 8.416863769157873 10.628563145349599
Si 12.606044560659582 15.851430361616579 12.578496582865839
Si 11.016631106463416 14.412054209641578 11.500914578636412
Si 12.39097866100406 10.613218875908762 11.979308587906056
Si 14.497088272431569 13.283266045482632 13.296176928649563
Si 14.320721388897287 9.722139037132743 13.02217638309092
Si 13.636434023344986 7.388420915756247 13.14091881113597
Si 15.877544183762511 11.374916223598404 13.930582705193006
Si 8.43880391756781 11.287589834649594 13.051418954369515
Si 11.451973615815545 8.49156530999555 12.676190938011402
Si 13.336039678139986 14.915981126284654 14.735518856065587
Si 12.420702845780498 12.317883468843132 13.648293792049563
Si 10.06792462428123 13.026599285016541 13.140426647422792
Si 10.497758698950088 10.351454797840354 13.763445017856958
Si 12.842276022760936 8.630743028320445 14.938247034843528
Si 13.95982207275149 10.894967338575885 15.261512448534331
Si 11.11269713238944 13.73131379469191 15.147774346824873
Si 11.516532745209535 11.351217872493566 15.679087230401958
Si 12.829817331546367 9.759206653428759 17.014285038057587
