32
Energy = -149.33546406 eV
Si 16.08954928628856 8.974725304177054 13.13421592137938
Si 8.867426468107139 12.82248312786471 15.096779895051572
Si 16.60001604499398 11.379854259400071 12.70695668150736
Si 14.158581955116068 8.2964461427021 14.405032850583682
Si 17.525501516527658 9.53449487643957 11.35241210025499
Si 15.223274244037722 10.75125583411062 14.669618028866042
Si 10.649952884749126 11.473766683125517 13.843537475135047
Si 11.22184524423673 13.147609206482814 15.516941895478526
Si 14.015054853317627 8.04213391671128 11.900727446286165
Si 7.8020678198553055 11.558879439336412 11.530753948054942
Si 15.243986093753781 9.809930806769518 10.7964960993481
Si 12.54353456247748 9.890919590946144 13.464751723179527
Si 12.900268987145425 10.430663697565002 10.924166224442825
Si 14.208640097256502 11.55274955092973 12.635720132962
Si 15.021376498366761 15.692848299522293 11.809584767119297
Si 13.664904691563292 13.818673598971696 12.366358761974881
Si 11.535147340537364 8.445799650885382 11.871690493610695
Si 11.524901071131596 14.136359223006052 11.240964163989672
Si 11.773073277820142 14.598256365750036 13.71431192243222
Si 13.727624033260684 16.024596217776203 13.828581001465482
Si 13.046163267005818 17.424607949971108 12.020523949051729
Si 10.887670143459381 16.42890277978948 12.406613949534917
Si 13.607038209645559 14.411014728113331 9.962958363462963
Si 8.577126343633987 13.324041538361648 12.80456795870551
Si 9.969649867646561 9.801565996717907 10.652892040757267
Si 10.344322538782711 12.091978324460564 11.536585410147524
Si 14.080274649181792 16.902017150477928 9.868631089354013
Si 8.31972723380217 10.827540636323741 13.961842560470451
Si 8.967793409641786 11.860176334360547 9.354908989021649
Si 11.674538071847078 16.220760963777856 10.108665568718871
Si 7.61990309354891 9.650818091332155 10.195696209410924
Si 9.20106566223887 9.739946288607724 8.381337387381087
