39
Energy = -186.13132735 eV
Si 11.227182543322296 14.05834528511156 12.528634964587214
Si 13.223379523829081 12.957971471573623 12.012902431392405
Si 12.89545982811454 15.372769322409356 16.144280455566154
Si 15.087616008782264 11.944159538189828 15.991754646520267
Si 11.704728799194884 13.776377485328176 14.848245606330716
Si 14.977507783635309 14.346942635957305 12.710996540405123
Si 13.26863260798174 11.53054129086978 14.479100062555755
Si 13.314331614419006 10.633654335092599 12.218613988960133
Si 14.44964761312929 13.996596500357166 15.000642280274539
Si 11.269734849810778 11.651280470428727 15.780015842123005
Si 16.881403878373753 13.027501740764121 12.330923079214935
Si 16.93676899659561 9.207154695204165 13.629664563347122
Si 17.606933359119964 11.840708593113515 10.391100050852776
Si 16.717324386706846 11.580437477565527 14.303592241580768
Si 19.483759782018172 11.242794300291512 11.819299698162173
Si 18.965427781038 12.911125083355026 13.505894521422457
Si 19.377674913453035 8.921751959004679 12.654419738314045
Si 17.562305446307427 9.589446539164731 11.155159229382265
Si 18.951245836861187 10.675006758686372 14.314589914759779
Si 15.758863069254378 10.828705642718372 12.163017069499665
Si 9.37718767952356 12.625576500815201 12.155641894818766
Si 9.177745750819067 8.919797939711817 13.223783948497047
Si 7.654335022995272 12.085760092691471 10.650457895091572
Si 9.722006878160629 11.149327978792865 14.047013888609083
Si 6.422912030295063 11.248230172328416 12.498556803636562
Si 7.70440508525978 12.702564249399098 13.974381212220793
Si 6.6515756503821555 8.830105316925437 12.784331141230831
Si 8.089274077438489 9.793300836887571 11.081267739909263
Si 7.48942173143099 10.366417452742233 14.63017985884454
Si 10.377716020674926 10.414026016726542 11.701860167643776
Si 12.697690667458428 19.387891678550208 13.764773827908007
Si 14.203187239556458 18.863343180032217 11.567641660794273
Si 11.475083239550097 18.64892167569818 11.460069462107242
Si 11.760909416578809 16.313253669332404 12.193467950309367
Si 10.710913131784022 17.913111269361963 13.719896545670602
Si 12.874070977609298 16.94623873870925 14.342335628006206
Si 14.896765983946619 18.2518311559079 13.883989081818973
Si 13.013421791957272 17.117996532009073 10.234033977343184
Si 14.226192374968992 16.513777790528753 12.288213762624789
