33
Energy = -155.93051505 eV
Si 10.864236193916275 12.149374424957276 7.500816864794477
Si 7.2885957895851154 10.061134233907591 7.371403813080158
Si 8.472224086787412 12.102068422392039 7.524812780527669
Si 11.196697667454016 9.867771556581076 7.08316368701214
Si 9.29386138715735 9.241169697535046 8.486626106896532
Si 13.357848197865554 9.58439902020911 8.126894063313788
Si 7.784272577754088 13.706113173671005 9.040229805715393
Si 12.173942473736876 12.94919290662823 9.235507379494068
Si 11.43755474913546 10.56751844317748 9.545167657653904
Si 9.885914826192451 7.140031648093304 9.49174791706152
Si 7.216478999436542 11.119085453535147 9.53239136791402
Si 13.981113125076584 11.44669714410072 9.381361750172207
Si 12.01702022933099 8.067008298921733 9.747536398653619
Si 14.419319790122694 8.013568290427566 9.603311081651425
Si 9.83184822610341 13.845870653780572 10.165999965121507
Si 11.89043187004579 14.811610403694814 10.620373558699542
Si 14.365062431782341 9.97049639802382 11.136553146910279
Si 9.22393507689605 10.644167459420371 10.709938861521717
Si 6.355533234973289 12.936827914392051 10.844275301195589
Si 8.623379262756407 12.707820308746367 11.777219837419795
Si 10.506029913952219 7.122208935411392 11.902238603288014
Si 12.18595421237717 8.975641276008355 11.969441497188837
Si 9.702004477451743 9.265178080221403 12.531410293061741
Si 15.437072903168508 10.550660136204261 13.217972071399686
Si 12.05956248843614 13.422410336521443 12.60651686640701
Si 11.4364613298533 11.083158613413552 12.863978330963176
Si 13.733191994226713 12.167283760341192 13.86029561338288
Si 9.84097294732842 12.851697672991946 13.84046429346479
Si 13.451795461966618 9.501626033244095 13.89419010076476
Si 9.80186422396284 10.573969887377578 14.603718294205333
Si 11.445130849016866 14.33064783158163 14.755383458748023
Si 12.078741965725454 10.748513278664248 15.329528022015031
Si 12.987351561651503 12.820482831048983 16.04493573552613
