39
Energy = -187.16214403 eV
Si 11.658945349103496 8.14774644130016 8.866549142577815
Si 7.860566011639226 12.591058067405765 9.117947579831323
Si 9.364838839561564 6.436106246805889 11.556229718276715
Si 8.977991848529735 12.958472361750365 12.472334425578168
Si 9.666854545619076 8.87865890798858 11.545417608484303
Si 7.128913620375674 8.876703218475463 10.221230636677946
Si 12.110474220621201 14.3905737785191 11.967654967735381
Si 12.370349370892997 11.1678771657404 8.016674854962954
Si 10.826720508170528 12.974193467425735 7.891525827626024
Si 12.080533177197404 9.488878385752665 10.873971620768929
Si 14.152546888830706 10.946296334563327 10.463047764313965
Si 14.042661795952846 11.449579164780713 14.510896669058518
Si 11.963067370174425 15.118622541584271 8.017569563003777
Si 10.80954421900325 14.904847569032263 10.03916204100001
Si 13.077871233592456 7.108647345225906 10.500965999884164
Si 7.400231099981799 7.685295506563563 12.338804751194067
Si 11.65773710036398 11.508846998386485 14.405312399421948
Si 11.476418418191697 7.285507594358972 12.26425561057731
Si 10.46734141854438 9.492878937356659 14.265579951594958
Si 14.424681446942103 8.859629355301577 11.489993184652155
Si 8.727714073267194 12.252433123957582 6.930612794382116
Si 11.606827768041322 9.316802509349664 6.817417161962892
Si 9.36117494841144 9.976155871124687 7.511395654963217
Si 11.575123316839079 11.932029202170316 12.038072795222035
Si 9.057281937413599 10.397730761299533 9.772310858154704
Si 14.467749244167965 12.070458429649946 8.463776115413715
Si 14.410029207397866 14.69180200184323 11.586362765006614
Si 6.766334977767826 11.130232500336056 10.606677061067021
Si 10.15766336889492 12.483096757585571 10.217096346485077
Si 13.52191932138969 13.997730254932504 9.462730310733289
Si 8.568400029447481 14.370064175269167 10.612424650285034
Si 12.038083157685325 7.745300662363006 14.519000164519213
Si 7.825067326912961 8.120681441859952 8.053574172264861
Si 8.32636246017005 9.623411927895338 13.438686472040349
Si 13.436433800478618 9.410769833217927 13.541896782781128
Si 10.75352320075067 13.675864996795678 13.831152429831022
Si 13.982493806610847 12.435103055299443 12.281603058181487
Si 7.1279645380011365 11.630461730189785 12.932688592120337
Si 9.580632781240308 7.278519124719434 9.366465245543523
