31
Energy = -146.26211483 eV
Si 14.02339520984144 14.984075469692689 8.028992971851222
Si 14.7117803078765 13.02069087561403 9.10092324752434
Si 14.393071461884398 12.946544388371025 11.436279182198916
Si 13.457154680501798 14.93301974257098 12.480346858330863
Si 15.180953815478354 11.04330156416717 12.619646225993712
Si 14.029987046744953 11.105401743603283 7.789754306408926
Si 12.846252344906814 14.857988730260418 10.140284365779017
Si 12.644289424934582 13.037031532209246 7.734208838181465
Si 13.178510309050724 11.264754916661042 13.837296947071035
Si 13.764731141434552 9.416088904475842 11.614949775419577
Si 11.904344328074709 13.032699918839747 12.858699834764339
Si 12.710022078858817 10.177142580235348 9.616057815275541
Si 12.186417246625902 12.192384526541547 10.673343566610667
Si 10.986938939429091 13.738734352284942 9.257061542239049
Si 12.763477786084776 8.752270407973356 13.877045994719749
Si 5.825630847042402 11.084460963118886 9.276449693492651
Si 7.116297968869964 9.413718719825534 10.282070415095975
Si 7.940201487040542 9.87186015502939 12.450198700779621
Si 7.277867630347886 11.997612787389363 13.42180554864287
Si 9.24427124994956 8.218808351923968 13.563000748276158
Si 8.67004937371006 8.51102240294429 8.647345638182593
Si 7.14462553150163 12.138187809761513 11.008657151433237
Si 8.074483673021742 10.797417452426412 8.45830679853789
Si 10.583831714123775 10.020967599230403 14.272766079785319
Si 11.085528872278896 8.095970169583861 12.057710959864036
Si 9.750635459442895 11.992627631861623 13.213043928150904
Si 10.627952367533437 9.125466464121326 9.957563428444352
Si 9.681393967043295 10.91345852409395 11.117546807730623
Si 8.944841916381074 12.651471337078831 9.620573736322351
Si 13.303145744653014 7.136069302685644 12.319225486899093
Si 12.455422086086989 10.036256686179069 15.776349416749126
