34
Energy = -160.52033975 eV
Si 12.79442460578621 9.770936191520617 6.3537137829335855
Si 11.131531237591865 8.96788380268079 7.851828021249621
Si 11.706735821007692 11.431787129018977 7.774431552695771
Si 7.8161196385771055 12.265365648250762 8.290035567408992
Si 10.02205195533862 13.10382123586731 7.851443468022744
Si 9.46435116423386 10.462634561881499 8.618893901711655
Si 13.59716831974021 9.121352208220802 8.602720517459199
Si 11.053557509974606 14.245595578398783 9.613459659608823
Si 11.629339632813501 7.949910766285538 10.053208943490969
Si 13.534347921319917 11.408539139561496 9.216917898195318
Si 13.86569834454337 7.096942882304502 9.794849855619931
Si 9.111016477268299 12.614824007781658 10.285570025878476
Si 13.371691569373862 14.498354260367877 10.08590378805431
Si 10.637581878772105 16.13843882722529 11.044919429090461
Si 13.675516211079334 8.68759740557846 11.598700971037454
Si 15.200888232776935 12.936415277110502 9.962304461743289
Si 9.845669424591735 10.434942152187084 10.905341617563494
Si 13.567303311161123 12.457361654476244 11.644976642085647
Si 13.100516019503903 16.52145745534267 11.39051048055013
Si 9.725547732946856 14.146710113124792 11.98114976577936
Si 12.194665244633384 10.43935382102062 11.125006693135974
Si 8.526199271307306 9.377214323792508 12.578235763649289
Si 12.222866837193031 14.547300591164761 12.33073092757255
Si 11.810610291218449 11.265995798692074 13.479035326885752
Si 12.347288478578077 8.879192010238173 13.5416493304525
Si 14.089647603142852 12.115161529367338 14.048723066651196
Si 9.979281688996183 12.732033499150347 13.987776021618847
Si 8.685991537976214 10.763734125764916 14.491064794543234
Si 10.034325508509667 8.654532901873754 14.200250304516876
Si 13.13130222677417 10.290036930325892 15.326525644846248
Si 12.343341350762456 13.64694793728255 14.538638795034267
Si 10.97529101953929 11.12789329833684 16.014065827969088
Si 9.274654409247988 9.444756576323531 16.35919460286092
Si 10.626651462483288 13.548150298245814 16.15139648884832
