33
Energy = -156.13033125 eV
Si 9.495885142519413 7.516698917903079 8.256909612211425
Si 9.610325893594549 9.943907463086466 8.427545185251523
Si 11.475888394976124 15.379649131049828 8.43616524586934
Si 14.86500310617695 9.026200659505413 10.282771699956449
Si 10.628461607269914 8.0636907486884 10.287681463974243
Si 7.964888959085109 8.64174572734539 9.834690582789753
Si 11.276301608886154 11.049251716096766 9.683890961042668
Si 7.350470574351738 10.629735769049555 8.684233443350923
Si 11.845341594604202 13.34230953096225 9.697796614783213
Si 11.93242331646844 16.6355576436305 10.578197537388297
Si 13.627966645195038 14.856104899823013 10.141495254418937
Si 12.55953622465618 9.436161724832717 10.755086963562626
Si 10.09077083031067 14.897426150564836 10.322690323228997
Si 15.240732991399685 11.298458232260145 10.565799480037755
Si 6.9990949874465285 8.27267685126833 12.012551199767262
Si 7.570768245445907 11.802363287006466 10.784069550004142
Si 8.543869368980936 13.698362177476328 11.713695662172986
Si 17.00390945988859 11.43079794243833 12.08860711700161
Si 11.874911989400484 14.557711107358582 11.861312178131511
Si 9.842363238164774 11.491886076000503 11.520702411968145
Si 14.911045431754495 13.272310098572996 11.877172439348675
Si 9.305252424482864 8.37265361014099 12.157840196828074
Si 15.621377427897919 9.588509087773994 12.534328592680794
Si 7.60298310308995 10.52605346038827 12.716715798230576
Si 16.90321663991076 13.454509154071278 13.39442717992886
Si 9.767131197847851 12.898085881490488 13.578882910549728
Si 12.46794865245216 10.165366544794626 13.009500327905103
Si 13.125509827930172 12.363880967949088 13.278106686843648
Si 10.15149731656036 10.095315607242654 13.524091977784218
Si 15.3425539752295 11.814233420733014 14.05729278982573
Si 11.766004652822314 14.104987256144437 14.160703794256195
Si 8.50875752853928 11.26021777674174 14.844741942293508
Si 14.30724643795414 9.692620172900881 14.50974167190606
