35
Energy = -165.26250466 eV
Si 10.114556779846572 12.503091543533388 6.417923751297617
Si 12.182493124967758 10.25176200858204 7.56276618969211
Si 12.60531779493434 12.44170288247705 6.614395894132783
Si 9.178005458031098 13.247923022596481 8.480327273291934
Si 13.509244650651542 13.159671211903822 8.89040360651076
Si 9.801486548485915 10.546918967933237 7.970036899135829
Si 15.21598145030817 11.858394478084177 10.015194851467982
Si 13.250418278326013 10.64604229513264 9.740563512278833
Si 8.074502930988997 9.396132704408288 9.238139260216832
Si 11.347534700948287 12.206791915871392 8.824041034418133
Si 12.95261363644405 14.69650329574751 10.769325107744999
Si 8.145134414253603 11.64396176853901 9.899671814096939
Si 9.849883275095783 14.124012544192126 10.659977351613641
Si 11.035389225070311 16.20110220673205 11.054046044994386
Si 13.916363918959833 12.612333602257893 11.893616572851144
Si 11.58038848704904 10.38835567174174 11.407462355704634
Si 9.525924670049935 9.259937836067234 11.15276049191346
Si 11.510664277814108 12.746811854253245 11.665673848544358
Si 7.962720738794931 13.02374216292645 11.773638943457822
Si 10.195936736480274 7.492906922733813 12.680519058264846
Si 8.856230360651931 9.366170071683726 13.57902482030051
Si 9.448228179487598 11.458509341296766 12.749114617643313
Si 11.368552540115095 9.363784580579146 13.494909609862459
Si 14.150525556976289 15.001330606730418 12.910699343846552
Si 11.725028961748336 15.079617500409988 13.029917654757236
Si 14.408103911846938 11.14377954356861 13.72890635764394
Si 10.75217728228047 13.153589276531585 13.970937473179106
Si 16.51646486967996 11.646084699591446 14.724248329160993
Si 14.850292228876613 13.393551088681287 14.742751347688657
Si 12.92779067552193 9.93826055041992 15.198601374761111
Si 12.646630509597571 12.350557292146664 15.072987686790094
Si 15.238196720723717 9.86053530743027 16.011387783752266
Si 13.620341308221708 13.65098415081405 16.86173950688142
Si 15.513216197938654 12.025113903084227 17.06947594562104
Si 13.131502970605842 11.22787656309169 17.252657658256147
