34
Energy = -160.33330775 eV
Si 6.962166501026098 9.124494742628707 7.3895533699652045
Si 7.907849410195107 11.337907249424838 7.417219897233888
Si 10.078459296467091 10.471447139323685 7.740249753791218
Si 12.252598776526131 11.227576518181655 7.060103522201217
Si 9.036400374246618 8.572045825691756 8.634724926446182
Si 7.589752126065655 13.565059544164328 8.208746734000655
Si 9.408533977031881 12.299117416888492 9.252598624906094
Si 11.829234279564604 12.430924838507524 9.109905773022932
Si 7.005918759176629 9.758120493334284 9.602358612594651
Si 12.567241025893411 9.961221914221298 9.015153525184072
Si 9.70479772158707 6.69957735873285 9.884559421981763
Si 13.316035476606102 14.259167757009056 9.652879236569897
Si 14.625660096958034 10.400738418731654 10.030675272321107
Si 6.965622225759305 12.140625672119661 10.051497358464953
Si 15.008378516781526 12.71947769256853 10.205082971964796
Si 11.79672657290433 8.027569324263233 10.160038075451851
Si 8.02426564738029 8.164374069052064 11.048973833169308
Si 15.78058847564428 9.093819862630589 11.545907628128424
Si 15.852730427860472 13.209252037864037 12.414301265680074
Si 13.61570408263107 13.90401376755465 11.974026437118898
Si 13.640182128482628 8.04422378159089 11.716569918254116
Si 8.938925170813553 11.735162837419395 11.487697270487033
Si 12.300715505419326 11.303138573498112 11.347042909661104
Si 7.141805574425086 13.222173582271337 12.292605533050693
Si 11.36198533220268 9.225669073223502 12.18888859188362
Si 14.692071570760877 11.06200841278038 12.468308519942719
Si 9.426096060855562 13.52534014447723 12.958251814324594
Si 11.73440048672626 12.981965313231548 13.04239540094982
Si 12.557553517983006 7.854282829159009 13.815418410382884
Si 9.103719990995629 9.695189126505845 12.522671867341629
Si 9.472263495746047 11.307144044541177 14.259839169973963
Si 12.9399331762938 10.16391494108869 13.878350968576523
Si 11.715230908277299 11.784638489686337 15.078590509478849
Si 7.786040066896448 12.868203963816462 14.684399631679481
