33
Energy = -155.5940981 eV
Si 12.815250681027447 11.944825500711378 7.040567396026949
Si 14.221662151240444 11.355348635395108 8.88220784252219
Si 11.674495675519982 10.952989519230401 8.897432025421075
Si 11.340549181339611 8.702298342327559 9.777984815763253
Si 9.611171863290439 11.878746876462955 9.737380310947353
Si 12.507104531480941 13.782152736528573 8.62000253420352
Si 13.54334009041291 9.774818289477043 10.558388722010536
Si 8.509540431845451 13.917240323866933 10.025217702393917
Si 11.272853632003992 17.057396412713793 10.47923188546808
Si 14.041764748852056 14.087123663108512 10.348791034635651
Si 11.983906731121108 12.659756992574069 10.768487476100846
Si 13.391163229894682 16.070047550745063 11.508568009845709
Si 15.776603644839687 12.488914144838578 10.323546747410344
Si 14.025338041663765 11.753074506442571 11.754298455054508
Si 9.691881561270764 9.986964594697463 11.122215033363267
Si 10.636053394810594 14.947449181402805 9.561013049304568
Si 7.82369466100224 8.808013064170575 12.056565922663697
Si 9.425230373375935 7.497891009738209 10.848714544576072
Si 9.965159659998747 13.236899383612048 11.91253723511518
Si 10.944446391282995 15.406796241699752 12.072548264168974
Si 12.988620022467568 7.603589139189354 11.304869737506461
Si 10.415250436058448 10.211709937478641 13.29989300605904
Si 13.800674494894563 12.71385004904331 13.899182475418709
Si 9.51514798497365 7.97252318430397 13.59852334025941
Si 11.104974714752952 6.486427693625133 12.297526752674363
Si 13.012285012755088 14.931601283876512 13.556516552988045
Si 9.502347843142465 12.260448354762394 14.106986100203995
Si 11.617958695714902 13.13979670147283 14.712960835891046
Si 12.059909621932992 8.459802961401763 13.56619217671318
Si 14.825336972739965 14.441916383109774 15.287357233696829
Si 13.377645103828725 12.75904058951265 16.34294266194749
Si 11.002137405997278 6.538997321560061 14.715931630683807
Si 12.497484879427056 15.092533295880331 15.936402353921713
