36
Energy = -170.11095844 eV
Si 9.668330266318529 8.465765677964386 6.260263939460335
Si 13.507735277900949 10.252260153736971 7.368758665838373
Si 10.780315170277243 6.445586357533557 7.206188308984105
Si 11.751617434632111 8.707099749869876 7.576816666665952
Si 8.655818527794624 7.109035377387078 8.194738609654255
Si 9.600773558902151 9.38253743810075 8.481333490444184
Si 12.141508315561984 11.249573846628826 9.063143504532126
Si 12.077293890057273 13.5271982176127 9.520497487064496
Si 14.193473820851416 10.249736534598267 9.714370091682298
Si 10.779088612828291 7.5423817666816895 9.412179561983553
Si 9.615397859771695 13.734464072684418 9.166155046267829
Si 9.818806278183775 11.38585166533827 9.738878323596554
Si 14.268187733613127 13.847125357527416 10.410503917760005
Si 15.77173852953313 11.93711955133437 10.450176754817019
Si 13.436551016353725 8.706679521205222 11.245777530860108
Si 12.219814287426692 13.273910718642906 11.853518278758225
Si 11.919630789377125 6.947698063388734 11.3882576248055
Si 8.809368478765128 14.337334241669351 11.350813662591602
Si 12.532445089994935 10.992779568492367 12.703822656134102
Si 9.572482003499394 16.29832954339335 12.549876637583345
Si 14.305477067898202 14.555260422184944 12.695270893186503
Si 8.951578708405814 10.812487661144951 11.90691726948587
Si 9.867551827847889 12.803096257006969 12.775722044436256
Si 11.815499164361569 15.406300651729135 12.853890622653966
Si 7.381770012381388 12.64342618718184 12.381893551712642
Si 11.28698741324108 8.691094651962445 12.842523025780743
Si 14.668326249710455 12.264979276445198 12.555997701720548
Si 13.537065569679223 8.913997950886168 13.602744293080452
Si 13.48507945309832 16.023501022553095 14.415614308607122
Si 9.05163856235491 9.049828178365946 13.51959918260903
Si 9.755780303052399 14.728362805602497 14.351915389530076
Si 9.780630812701968 11.100327439781548 14.50243613229471
Si 12.004549038459485 11.8495812596751 14.942635218572159
Si 8.195014374814516 12.906359431962388 14.65557653491872
Si 11.945842405890009 14.239301103818862 15.058369467249939
Si 14.196209439938308 10.969005621386914 14.632200950155639
