34
Energy = -160.97106763 eV
Si 11.199682279564865 10.453645235795245 5.927183599517873
Si 13.642380692611173 11.365619144998032 6.396478953888341
Si 11.587349380655253 12.914037231741066 6.355422334626464
Si 7.812635139798671 11.743576963448696 8.368709606640255
Si 13.686629702977445 13.605829844417665 7.474785202870847
Si 12.553761743661257 9.609442201399787 7.727676849844594
Si 10.122300178048517 11.525469966056196 7.791621126077451
Si 13.776583515157805 11.467885705230943 8.974243753806654
Si 13.73715850484321 7.766158914333376 8.706506803001995
Si 11.841601183710809 13.052309716749777 8.884565630506259
Si 8.548086366999739 12.921657603006654 10.219974362285445
Si 7.95533697798364 10.324740031513487 10.303331738886037
Si 10.409847568579021 14.292135125040215 10.303045130758619
Si 11.453317118204776 10.731847517664503 9.643034492381902
Si 11.718756826060396 7.6957702933703205 10.001798644289657
Si 9.502526241040751 8.520455556914522 10.5135853503353
Si 13.418011292252244 9.399706795678856 10.461146948626244
Si 10.683774124190878 12.02780129782401 11.592226188600803
Si 10.856565679844275 6.860076356298706 12.022226487483076
Si 8.490779204008984 6.680265974726745 11.747351728494182
Si 13.124828882236827 9.566583977074993 12.826213084800886
Si 10.761805516455043 9.619368025244366 12.43622394539799
Si 10.52315201922118 14.702581142404116 12.65288627714551
Si 6.783492304084811 10.32959753462566 12.348569599572732
Si 8.441594453005886 8.733446368762113 12.9740442188786
Si 11.872839353499986 7.821224493976063 13.859230367757595
Si 8.336258918605498 12.093668171275892 12.419040269948367
Si 12.487997871801817 12.783364326976546 13.034769737365671
Si 12.451735558068158 14.970306523316811 14.00554699904864
Si 13.79719421957162 11.22065709330189 14.355241378333815
Si 8.643017508799554 13.983891550040623 13.855984745297118
Si 11.452314199260355 11.17060403550824 14.76002136265409
Si 10.070339720843595 9.163142666731073 14.726414159240093
Si 10.764898224600255 13.391685084799859 14.839451391885344
