35
Energy = -165.43260986 eV
Si 10.194935443217313 13.818051918081064 7.556985338840478
Si 10.922097160344002 9.7490023641684 7.1016284038492365
Si 11.894593702512486 12.028700981053433 7.215000193097642
Si 10.994684914409495 12.471466995225018 9.53984310652961
Si 11.44535450233483 15.584147976191444 8.500679955415025
Si 9.85405323212331 10.386604461229926 9.116486979864725
Si 13.45078144113633 12.109201225081325 9.0023460391932
Si 12.06442294236719 9.033131993314603 9.084979243739644
Si 9.365817795607528 14.578976393711796 9.864008967541105
Si 14.217431855309396 9.943092978783346 9.68505045867565
Si 13.715167802983043 16.22741294252538 8.884199455393858
Si 10.224193979777096 16.78617335063546 10.075214104546472
Si 9.977464523216124 8.164070035069924 10.750891941804966
Si 11.82210166071931 6.837765300500488 10.167788445978982
Si 14.232479681546318 14.167466899544499 9.875469181267485
Si 12.424548894126723 16.226665493112307 10.844362959971816
Si 10.99586240058882 10.356596961625458 11.321228468454555
Si 8.17357884209152 9.73962776080471 10.776175757690396
Si 12.763647096917435 12.409432929165945 11.402422941092615
Si 11.889059902075248 8.21660068273854 12.237988559544581
Si 13.324706856329009 10.12487925285795 11.91329068894412
Si 10.190647903421949 13.34581871461876 11.73771494099203
Si 14.50749668536857 13.800898023772037 12.205779466573558
Si 9.170693121592338 11.298712512589498 12.449372183012727
Si 13.290432064701431 15.807882127615619 13.032399550701715
Si 11.906952677782462 13.932802312429379 13.2267430379081
Si 11.596195302579488 8.36813026483521 14.65198881965026
Si 13.113481719658537 10.355232648662852 14.265497764977832
Si 11.892705332664304 12.316277053999206 15.009816969966561
Si 10.415666927763649 10.53103893613133 14.300581666260488
Si 13.638833923133502 8.787401750893055 15.941287373618213
Si 13.200315211260861 11.204166961501192 16.739351748127845
Si 9.641154814122254 9.04859086451542 15.99935235762996
Si 10.39511245922363 11.394704820180662 16.66564581093592
Si 11.684601317825438 9.440548203666527 17.449701209039397
