30
Energy = -139.82291725 eV
Si 9.439169103031887 12.138806015903375 6.116456343012473
Si 12.226592274529922 8.99322290634641 6.794369613631462
Si 9.06579721097933 13.415708208212466 8.069852139253692
Si 8.247917976847871 10.786997714034566 7.509165682050895
Si 11.50089046850488 13.374519105564593 7.992331496579054
Si 10.301179561043776 9.655099501283328 7.999160569523532
Si 7.480242765324199 8.897138631069028 8.763279707278105
Si 12.520566034385102 11.206122406185163 7.63984910766926
Si 14.355518912912835 10.907629637175367 9.192425714433435
Si 13.030346519399119 8.950287335223102 9.077110919404666
Si 10.616232689409586 11.532980763661756 9.480456514455767
Si 14.21873696256171 12.239634055813065 11.300855175488909
Si 9.656347653960541 8.382999945589821 9.938025429252649
Si 11.946822963511686 7.5317082075767186 10.721851203209708
Si 7.23725514669479 10.408727589607588 10.608314875895983
Si 8.49661387323134 12.419891199912506 10.194808539474783
Si 12.36986120453839 10.638318756149514 10.832905724817916
Si 12.260611169343914 13.250869373897215 10.35343536394029
Si 7.294200772325203 9.434441482390975 12.826337935226386
Si 9.466183283782769 10.006295953108925 11.633015694075974
Si 10.007205589753768 6.07221821544509 10.71986075040079
Si 11.854293826408346 8.560071149515176 12.788372103923633
Si 8.147373372911115 13.856977893337772 12.116956920967544
Si 13.041688751314181 10.66952962631389 13.182356998646362
Si 8.601281321751339 7.575412185806053 12.114290244602959
Si 10.734152926635465 11.33701889437153 13.244281540779083
Si 10.398505157063168 13.302319873585727 11.78551622442674
Si 10.459372960010054 6.506681417310005 13.203569273995285
Si 9.501590208238886 13.200599772348363 14.050942182691465
Si 9.701302561273337 8.925625404939762 13.927699232570292
