36
Energy = -170.83366716 eV
Si 10.78890980551131 12.644539448114418 7.051219670167439
Si 14.717153155196938 13.505411358384846 8.694611515781684
Si 12.593614129762694 13.965318131782594 7.93505978757673
Si 13.758596453291036 10.624315819561042 9.475495407405724
Si 13.111930039702571 11.618397376930078 11.614441314931737
Si 11.695451620130374 9.199704226707736 8.979606143523633
Si 15.993195946728536 11.580711246695437 9.315611737856832
Si 12.085934217143373 15.574360490374687 9.549268585784528
Si 9.461278423157676 13.199046028359628 8.99893418184468
Si 11.70085557963069 11.82073116229107 9.076081319746923
Si 14.794821058273687 14.965014055660156 10.447851957433842
Si 9.745901282056316 15.385873277465526 9.91154739432794
Si 13.394901463824286 8.93620904186309 11.091272699019168
Si 11.36643625998585 13.540334697003816 10.847965158188101
Si 9.236799935041509 12.837306240698823 11.978202084061673
Si 13.491966658222696 16.886385298933064 10.963187742708522
Si 11.060814360404084 8.151359435801602 11.21615959025841
Si 15.25689533562594 12.872309890585916 11.296318565990788
Si 10.021298245949216 15.262347180299082 12.311560037481204
Si 10.112683626603657 10.405141320538663 10.40048783645648
Si 8.030874721374555 11.704455794489828 10.200268723442738
Si 12.41547299182114 15.219575439933923 12.301884081669803
Si 8.68635544718172 14.14504166994872 13.937394784025932
Si 10.983636091043879 11.231434049423951 12.478001581534604
Si 13.866172395467698 9.779871749436158 13.290589840996299
Si 11.60524499264781 9.108989566203423 13.380894239338959
Si 14.554268324365191 12.258681432984993 13.531255536800517
Si 12.957271187247901 13.926705492737145 14.177320406171313
Si 10.786625428719985 13.072211415207201 14.343639677715807
Si 15.513515354553022 10.464872993045255 14.864931843670721
Si 11.368207102966794 9.229046424122956 15.746123414192812
Si 13.470184433668944 10.453795732240213 16.11197233846276
Si 11.343414643120072 11.58164075219958 16.08418444905505
Si 12.61297162234205 8.875827874321867 17.807913538305396
Si 10.40479136607312 10.135010220299865 17.84195241282474
Si 12.511048261382946 11.33751562557358 18.24628236146507
