36
Energy = -170.26179574 eV
Si 8.31092565399694 9.220336869886873 6.177650837194591
Si 10.459015724266237 10.405964728648318 6.629752999940833
Si 9.844559161616797 12.664747232707414 6.846524354516233
Si 8.214336547074979 11.090340480423466 7.59052152373051
Si 9.076522170793194 8.46302957902549 8.313220208554666
Si 11.248417023033436 9.305274629932585 8.556603020135668
Si 13.428404322716625 8.825998019793252 9.156924992333005
Si 10.81267092964722 13.159736041936268 8.989910409842928
Si 14.541274414906836 11.068600668932447 9.06643903522182
Si 12.296407439705781 14.689855650049642 10.03605360896414
Si 12.157460576582496 11.287179018612228 9.909610100423622
Si 9.432697421830776 10.091935481343846 10.202987294028093
Si 7.960338662022028 8.06238530021093 10.479282470988577
Si 7.77534443865055 11.801461598645949 9.780341222179816
Si 14.11624222449584 7.415931397583367 10.903160269191913
Si 13.769177149374034 12.951772196007811 10.700229815958206
Si 8.769720417933062 13.945575467525387 10.042669671467149
Si 15.950723331625207 11.918266122562803 10.918907346482325
Si 14.66889845465971 9.738714316237632 11.265292615493772
Si 7.059135248770229 10.168527548069681 11.30432415037216
Si 10.604028176670173 13.030747335813002 11.493341201106029
Si 11.539347688160646 15.098194454095015 12.304089269016668
Si 9.08220973254518 14.73355704834887 12.317940957800609
Si 12.2099327400773 8.041005648083269 12.22174356424547
Si 9.844357600791563 8.190641789040368 12.007318129366052
Si 9.85353231049755 10.707506819070906 12.508327314191176
Si 12.273089508744949 10.460942274528318 12.261116729903428
Si 14.74238226335706 13.000604269140192 12.98747781636184
Si 12.34445640337453 12.917882191269099 13.2981400113223
Si 14.382008575762134 10.627634280175824 13.401269452368048
Si 7.543621834979604 10.828573186024828 13.589571930858096
Si 9.1334867200789 12.727417920636501 13.684282307004239
Si 9.096319914134343 9.034655447613488 14.126275117650714
Si 12.914165056798982 8.869399026590191 14.405856538518515
Si 10.906594724976607 12.589320776912198 15.256557150842342
Si 11.058509081008623 10.28659883018361 14.686600208085034
