33
Energy = -155.90515009 eV
Si 10.857089190243336 10.621867407806308 7.7631217969894415
Si 11.556928051456865 12.916458880527527 7.9816313842283595
Si 13.95362337092956 13.481257099744864 7.957796203900625
Si 12.820200696636245 9.349197895355383 8.483785516316575
Si 15.037273642717993 8.976371100791184 7.8259795427863645
Si 14.434167050667606 11.233541892341158 8.662267329953076
Si 9.632099382867223 10.069606204284236 9.79567806004817
Si 12.081220521519793 11.370558698046072 9.784334887334397
Si 13.270293563682007 13.613732472309716 10.241388628395168
Si 10.420079091827931 13.934179948821185 9.80140602963158
Si 10.027122967939686 8.011530567635619 10.960755752957832
Si 7.4765884491367345 11.217588420836858 10.037141423187418
Si 12.198718663101848 8.923212112005766 10.773357575908271
Si 15.33513881857684 9.71771398375246 10.099929549838576
Si 11.807623761956537 15.157081770350192 11.270525629513722
Si 8.298027775643938 13.455124756324489 10.554520098604097
Si 10.048998816565668 11.8331690409179 11.417536526592965
Si 16.36978466071324 9.131428737353305 12.103581434570465
Si 7.250282731240068 10.936044996340875 12.402328412863913
Si 12.616415443005424 10.897383180918892 12.26107500519797
Si 14.091602535771612 12.88411307802191 12.37484011783392
Si 6.655078643287641 13.024447376864265 13.439355690742069
Si 7.698752316048239 14.983554845006472 12.377345760461328
Si 9.648501155582448 9.56574177658635 12.742725432846404
Si 14.024719036835904 8.523760041724922 12.286738905881997
Si 11.692462836002681 13.235916380411707 12.799801237694757
Si 14.980985641487143 10.795969502132905 13.133403692206969
Si 9.14273180723822 13.309130788416457 13.040108672381713
Si 7.711751244125487 9.429473019816363 14.120874219937106
Si 8.253297753637307 11.751431076963563 14.659733830340793
Si 11.265351568584926 10.415676470916443 14.16943530226108
Si 13.499273737421577 9.461187402477005 14.450611834977733
Si 10.636464361070972 12.565198361720507 15.019533801137518
