30
Energy = -138.825447 eV
Si 14.65401035880837 13.460156311100736 7.203807042419578
Si 12.550405944626347 14.276609486043263 7.994562857549799
Si 10.823819916850697 11.88864921527202 6.6905115007492375
Si 9.61092772991522 9.81016757818254 6.449233035481187
Si 13.856341098271908 12.519047993339104 9.167292967125787
Si 7.3187289675842635 9.908819872354218 7.257395491026055
Si 9.810772810260742 6.1849924788760875 9.108842120807257
Si 10.621625194629662 8.266650362858863 8.264683426703147
Si 10.604603885243586 10.73243884692298 8.803693160606047
Si 8.801752856986662 7.905024872532463 10.487312098725711
Si 8.615839756845913 11.836047027987789 7.505717752087554
Si 15.18783899073124 14.654166372425962 9.231967351860662
Si 9.377983376138571 11.271920831652263 12.181241259005006
Si 12.000264022765508 14.552120276599721 12.357221525186072
Si 8.366266390798998 10.021026061494007 9.462944063672074
Si 13.108871188721377 14.501872178823854 10.264729267321355
Si 12.7147519608304 8.723375062909474 9.316829652288106
Si 12.501467450219398 10.940230708292408 10.249022044413017
Si 11.30649890059301 7.339162301377489 10.57200440994359
Si 7.199154989865399 11.023980487193013 11.333070994535067
Si 10.590198142655456 9.135829548657748 11.992901961934935
Si 8.148516772889034 9.15306201451518 12.623971375790589
Si 8.741198611774474 11.493186997993769 14.581789254608447
Si 11.074463110388903 11.221389891064632 14.05231859153174
Si 11.430505470223899 12.398475534493475 11.762971313915598
Si 11.98970766396061 8.928910416226508 13.9974395384231
Si 12.683420339994187 12.943292214650478 13.939778874981275
Si 9.808609346900186 7.773196056165032 14.009692741089342
Si 7.933249790235847 9.192409615705815 15.07065124334315
Si 10.22610155668903 9.601685980687694 15.724299679273498
