37
Energy = -169.22698594 eV
Si 15.587144889792482 14.828532128429373 11.403893635732633
Si 14.123164294065276 12.64085115518238 18.36733161081212
Si 17.67720592471439 14.764725786080048 19.239899668449866
Si 15.950477433034111 13.98228520150193 18.00045580307798
Si 16.22968510952471 15.244693232216438 20.942450098012138
Si 18.39428370974903 17.622380134643393 16.44976581067076
Si 14.343438493404069 21.579214811000334 9.495314011627409
Si 15.734337586343763 14.324283176833031 23.232485681786233
Si 13.650242095687938 13.420264427502982 11.374739520810516
Si 11.940381657184883 14.767269614420513 12.532059717162891
Si 14.70541651357315 16.171511605154684 0.8077939472972743
Si 19.336423726289986 16.1906848403976 18.229844537299265
Si 17.76228510376971 17.909702061488723 11.758853377522351
Si 14.215579740165598 16.27802584661838 22.101309983291088
Si 12.310292163681021 13.033253465982702 14.14403272776058
Si 19.176270900955373 15.05164230687776 16.16563095137743
Si 15.29391606817455 13.05099930233933 14.71453902786493
Si 12.811029846817448 12.362860460459713 20.221421345200966
Si 19.558311173215213 16.45000452727066 12.11759942241306
Si 16.93444491724828 14.117665967439228 15.960441008281295
Si 12.66127098386875 10.75204495797152 14.418791658913145
Si 16.90227668552408 16.32663169419391 15.141851733969203
Si 14.634855126183123 19.574739519172933 10.868570785347533
Si 16.7285591517429 20.041409592952977 11.834826866954726
Si 16.86063371665495 18.3875512245814 9.65049517193466
Si 15.342216676226306 16.876816542168758 13.437483094094635
Si 14.31838222627041 11.720757851087003 13.035717461209858
Si 17.467272268835753 15.479183663995473 12.832110940162492
Si 13.279354854736077 14.393751872721303 23.40134705538123
Si 16.653957458311417 20.802710768835954 9.548696084330196
Si 14.11509899770556 14.812326588492546 13.444551817352767
Si 15.313003014557054 17.198177488034872 11.066448010411866
Si 19.37574936637327 16.718974310821046 14.51929793528947
Si 16.55752530745736 16.651638994419926 22.916679469868402
Si 14.255803948446768 13.899518999820685 21.161290205243407
Si 12.601142981409742 20.18721672566146 9.977016905390895
Si 13.64374668150524 12.21954571416029 16.090051484111928
