33
Energy = -156.80222292 eV
Si 11.135782448063564 10.327333330691669 7.215645081894522
Si 12.091551878581937 12.574246679168517 7.133464073287693
Si 12.61823057170836 8.43726549770228 7.446079714701821
Si 8.965067792421811 9.521337457794784 7.801318443717608
Si 8.229928668176239 12.681012412473669 8.52463938129845
Si 7.07429064305129 10.900630133297485 7.3380269134105855
Si 9.076733399702956 7.285501944743655 8.684516563159264
Si 10.494083557016971 13.20232957753869 8.833312846712518
Si 13.332113444453071 11.709322585968648 9.008128845899094
Si 11.401233531847295 7.30495318054799 9.21185238453577
Si 11.979006431837595 9.599766445595344 9.504858451712945
Si 14.293923640702097 9.539298052828787 8.820500526446436
Si 10.019555132377867 10.877654521617433 9.623568195043202
Si 6.813589625717083 10.625299132631827 9.702347105820042
Si 10.446732577747593 14.70037834794256 10.783477229514903
Si 7.056715685402047 12.834650355883307 10.506500329149759
Si 8.842587267784745 8.045178019388436 10.910960220331571
Si 12.492563154056924 6.423696511849898 11.192400259121019
Si 13.849197359581327 12.527751965199807 11.15269131771962
Si 12.468581714053165 14.27366216925623 12.264532014027584
Si 6.944640275284164 9.248147214910423 11.639525700899807
Si 11.310911039202418 12.383232592485056 11.188793649748133
Si 8.774699738435482 10.750762700504144 11.663284787958736
Si 10.689551000444244 7.639003278079031 12.307413877046384
Si 13.603417492359247 8.57534158683492 10.949520890591598
Si 8.951460927453464 13.183748684994933 11.984338245162746
Si 11.185096572011535 9.983163285960941 12.24805844589734
Si 13.592714219835733 10.45319815561817 12.347227956718942
Si 10.76745822650754 8.668186930361196 14.553231258409546
Si 11.363174644314311 12.598162144660817 13.701091517703576
Si 12.475433934008203 10.54556795888007 14.44221839532356
Si 9.146498224803867 12.992781890795806 14.395805267097625
Si 9.578725476583621 10.652685549321086 13.985920405465063
