36
Energy = -170.73418226 eV
Si 12.29105600821561 11.36123743651659 6.412794981427815
Si 13.14695842825632 13.180327501708343 7.712317813810402
Si 10.481210484223055 11.35868602547069 7.923555589376166
Si 12.945076352012606 10.143074569726812 8.374624728451323
Si 9.686014996486053 9.248227220369845 8.592484188306411
Si 11.790695283682934 7.977839693006166 8.608526431748443
Si 9.263792574302743 12.811839816351425 9.376915271033573
Si 14.858897681491435 13.181445571589602 9.214133449453637
Si 12.496570821580269 14.459490818129407 9.50923866118698
Si 14.822696154311267 10.924745095586871 9.71297696053586
Si 7.3559673698565256 9.050123893993392 9.033227804127113
Si 11.38673986473134 9.910615028502855 10.194161293369717
Si 10.148078500154336 14.9942470923599 9.939383151506902
Si 7.7733530001110305 11.039452087439264 10.296434092990372
Si 6.989761828429592 13.244804525312478 10.475697440982106
Si 14.55202195350105 15.131657615515918 10.563407407760263
Si 12.200815596160423 7.722065480586841 11.055940665916728
Si 9.811188992035856 11.134489397388664 11.462902424537711
Si 11.27052370912121 12.972337364384915 10.976396656048518
Si 8.008590687235214 8.244124268786772 11.164302920348597
Si 15.552865603650355 10.156700499792825 11.919981828509263
Si 13.423686157106841 11.574224119247043 11.528104473520555
Si 13.377528704725627 9.278582188515882 12.391953561473409
Si 8.329026799864716 5.987491584247019 12.196578816358288
Si 8.028751284162361 13.239695889142956 12.632683808861778
Si 10.106545704369143 7.688301863684678 12.13413096666313
Si 13.921342971636195 13.74890463972247 12.402603442485052
Si 9.912620125860627 14.612139695514422 12.285385581330232
Si 6.869777033684121 7.631614195855044 13.292047926614698
Si 9.299560414628177 11.497941040376707 13.709892060404451
Si 14.993943046704707 11.921643531668686 13.513362088862028
Si 8.682708304019455 9.239302602722338 13.331948622705372
Si 11.743911456909185 13.748311390086085 13.394501458928701
Si 12.795013064750563 10.987050839941025 13.872688341288859
Si 9.133921745447234 7.024354425100043 14.28836604528039
Si 11.14737271399161 12.171496409065808 15.104934461205872
