32
Energy = -147.15634523 eV
Si 12.423265148374005 9.117758838804262 13.404942218060748
Si 11.112830680992701 11.136803938398549 8.838696336721343
Si 15.387108032368074 13.388245286369541 15.883870755165793
Si 9.609812413407772 14.96177857248683 10.023588730430882
Si 16.44197066740094 15.629517818297526 12.875577755358988
Si 11.847462606245122 14.979085111016142 9.27733788804581
Si 15.554221286386886 15.689112389946558 15.148196535419597
Si 11.828570489545815 10.294167332774963 10.972515840405281
Si 14.512562334884638 9.97463225493439 13.879926376665601
Si 11.651040008714178 12.316557038981644 12.416994544548498
Si 14.15971420138701 11.771380753179274 12.189241011398101
Si 12.08036065899047 6.799416130513257 13.015292637686732
Si 7.480261647905373 9.735513906592516 14.969402632974887
Si 13.646221444745313 14.90794746703422 7.773489563682446
Si 9.005389801431221 9.600926095902544 13.206261168983241
Si 14.009161997294882 15.663969406713 13.11109523513369
Si 13.420688662817307 14.187532221939177 14.832642927298352
Si 8.61537635040927 11.616520443986955 11.990793665979732
Si 14.373521306087786 7.613573774286647 12.848978786589564
Si 9.47433963205075 13.340221676411254 15.862612845968863
Si 12.955425076232197 12.751718025232215 8.805957760919098
Si 14.966323965177175 12.806692258678648 10.135759438077393
Si 12.855651600633836 13.780033316590961 11.032222754480836
Si 14.525732932624754 15.200069112639804 10.062650957784314
Si 15.013234036936575 17.076191192418264 11.510032260621212
Si 8.744562935823632 11.694490135665436 14.342874868396091
Si 6.661855172107639 10.743950102656813 12.925058598375148
Si 11.227123698310871 13.345808826851313 14.479417640649933
Si 10.615037288533506 8.469545623669791 11.882393858614702
Si 10.129896799313814 12.678671710961734 10.461678757685322
Si 14.047818508372785 9.443555093121555 11.365318776288838
Si 15.433401686658168 13.546371340715135 13.512697873748639
