37
Energy = -175.57768146 eV
Si 13.24922126230268 12.396263878146392 8.273246598203093
Si 12.311016954432567 13.932876765703359 9.83521713970876
Si 15.182118645253208 11.937611212911913 9.612679714751494
Si 12.745217161487933 11.275680974674952 10.404866012386542
Si 14.24536049516341 12.906096949580993 11.55908744247641
Si 10.047553316737007 14.03069937277652 9.388700788008185
Si 13.331679633061137 8.997670626769455 10.681187300337664
Si 9.481751626137797 14.788261181674516 12.750516759015667
Si 13.504816473376795 15.155840951480718 11.5027976920616
Si 8.983589177738693 12.789899988019222 13.830305259210501
Si 12.512931583805432 12.878069233129345 14.632871343096445
Si 11.747398703986832 14.226790149973331 12.835327015798649
Si 12.293245952991986 9.970855698009947 8.122609431006966
Si 15.585229682906178 9.61319406247342 9.986090982861556
Si 13.620751655555859 11.240924550171199 13.221278504791913
Si 15.080397486718233 9.231643962166467 12.41350408208528
Si 11.10776472602278 11.121699239626176 13.26206414744163
Si 8.2763895509509 15.057940450761196 10.665692546134832
Si 10.750730700362618 8.214337255681619 9.021710575835623
Si 10.261156980779552 10.54577990410183 9.803642446763646
Si 14.066830459715456 8.349750701357754 8.536139803847808
Si 11.885412268381733 11.621702746849397 6.430381191377776
Si 10.018963895466145 12.130096472276563 7.92774141764361
Si 6.3488281048357855 9.607440559969017 8.948558707958702
Si 8.028892013118403 11.257755521700002 8.923547097461446
Si 10.675542074686245 12.469834395804499 11.359408192333625
Si 10.36764672127122 9.494998728691382 15.056877924603107
Si 9.226065659203375 9.42845896555372 12.844359845168402
Si 8.449089857636546 8.712385133420868 9.562335650246135
Si 8.250150398830876 7.524464811583908 11.760030664496265
Si 10.98580945741621 8.484031999975498 11.407476584117628
Si 8.289220758408614 12.66797305244295 10.816272915536834
Si 12.52232814775084 9.245415121135393 14.029699111913347
Si 10.449162253531275 11.896716150759486 15.460739181399852
Si 12.997167863746915 7.485081587573915 12.522875481337309
Si 6.790354084130076 9.398697560890488 11.363980924202073
Si 7.685613712098914 11.268459966620199 12.601578639942513
