31
Energy = -146.41173275 eV
Si 10.153567327079468 8.117683969050246 13.610696078128333
Si 14.652411448388348 11.521248677199697 12.184240325409487
Si 11.472353646855327 7.91957697062758 9.61779250572966
Si 11.601906588524368 11.889766220303152 8.02014870908778
Si 9.636995431795013 10.523359843005759 13.633860684752447
Si 13.282585280643879 10.804297021172285 13.925126786138495
Si 10.497637569649486 9.79678223161278 8.315885190768766
Si 7.72592571785267 12.119892794614518 10.089007243236708
Si 8.844666292652526 13.741501498028615 13.244863698378673
Si 6.705325016375265 8.587273790369212 7.699088356303303
Si 8.894042900387605 9.290046237078716 6.379201083469392
Si 8.298369481917085 6.885771700677172 7.004927214170447
Si 8.693310044155158 7.997302804792675 9.116211525134986
Si 7.748499300303787 11.705853601685432 12.67313597624332
Si 9.5658965634765 12.391806353688477 15.157498644725136
Si 10.07558904662625 12.49489557484831 9.747045727320923
Si 13.75354399213246 13.80536769557684 10.783913849555212
Si 8.040414297932141 10.278043517223699 8.603831861937941
Si 10.721789554985385 7.506638829700084 7.351398568964324
Si 13.145218601572319 11.626688052007301 9.865571370234106
Si 11.754431471866681 11.27388994955106 11.859660276359698
Si 13.153931753775392 9.123504602946348 10.696292715406509
Si 12.099688284419551 15.481654519576548 11.244894098427745
Si 11.567050070894862 12.559822748435172 13.913450844623101
Si 9.781390459515782 8.319422126789393 11.251986676836239
Si 10.628338809473558 13.70421469547 11.727382064916402
Si 15.295755221147187 13.770248157949828 12.51710062983537
Si 13.020250148000022 14.381903687515143 13.105415292029079
Si 9.420610224796738 10.647274219108034 11.155903812605803
Si 15.117261518254324 10.292809279812918 10.192877592272758
Si 12.214856134015166 9.00507082904762 12.875202796462156
