30
Energy = -139.90040146 eV
Si 10.83813650504634 11.27665924352096 7.327640092919491
Si 12.558924899548646 9.509218005943096 6.997320502607547
Si 10.36739188861236 8.632697097938214 7.55901458028013
Si 12.207190034727828 13.096201109453407 8.151221360042786
Si 8.813785033502468 10.168100363143504 8.582059840433258
Si 8.486702140926523 11.989557999957027 7.092846360818929
Si 12.30679304473532 8.301936747271892 9.248064016563195
Si 7.995457393311801 8.418992755245155 10.129503339818292
Si 10.96527258295241 13.515120070727306 10.157977217936615
Si 9.998311539292727 7.277848263179449 9.452348660716355
Si 8.659952047730513 13.119029285942737 9.257148672593335
Si 11.877622611670738 5.847918251335641 9.826114713828261
Si 9.150159267421166 15.158333551885363 10.480271046188914
Si 12.579219633249588 10.997964338431983 9.02720779882714
Si 9.68996116226317 11.332068809839795 10.521532687626904
Si 12.336448165356385 14.082543812605968 12.022926550293914
Si 13.090805359192721 5.932085406262608 12.011028673480169
Si 11.547057355109017 9.852946002105476 10.942012374172368
Si 11.050326557994342 7.012849459736764 11.88776789812956
Si 13.425275274557473 8.262080520027611 11.64530935547266
Si 7.481350203952036 13.375354179342255 11.394715352506163
Si 11.112302351622528 15.142784187420176 13.88502393607368
Si 9.512483037422834 8.864045665176164 11.916726983787758
Si 8.776769905401967 11.629288935055003 12.623547896714777
Si 13.79327825581542 12.491459251774229 13.022261897136476
Si 8.7488769326689 9.719491896618019 14.060501636984144
Si 9.732592975169709 13.843205739734188 12.508448727120793
Si 12.904769103541797 10.261943185262801 12.822171194117878
Si 10.869027095343515 10.736388219950857 13.948604875876804
Si 11.836939025522877 12.865069028774245 14.211863140594097
