36
Energy = -170.5345581 eV
Si 13.410261227141918 14.139965887852457 8.03514732999608
Si 13.9789179909393 11.695447198399327 7.981752869978891
Si 12.066802497818626 10.462766261923157 8.817972990667604
Si 9.76446117193293 10.92257683087024 8.906689811976966
Si 9.103443559109014 13.128331369401153 9.362640848885722
Si 8.344870365398316 9.149204659274076 9.500446478915705
Si 11.055852860217945 14.56622832096365 8.975304658820876
Si 12.372269472380664 8.489897981165806 10.094597687343871
Si 14.359633168881464 14.06458187919957 10.272476012182755
Si 14.74551513571676 11.70751415628935 10.405753934175822
Si 10.221730273418666 8.991801643820386 11.020636890035913
Si 12.436783717990254 12.696649506133005 9.752566503400642
Si 7.010325571305969 13.099938035558612 10.632132577841544
Si 7.583277928259171 10.812808479196551 11.058041363697871
Si 10.502437685728909 13.008264991641962 11.233276329700429
Si 11.682019629931169 15.197796623749204 11.220934914602463
Si 13.29055620108731 10.089500250146953 11.588167975230277
Si 13.811336545605641 15.68879695463812 12.01206860583563
Si 9.586579205552383 10.999533870584628 12.404129219843018
Si 16.293043601645913 11.545242146882568 12.235546363380266
Si 8.310743938982908 13.40904442947027 12.592221425891356
Si 12.174615473395225 11.901121643197078 12.618305346961762
Si 10.062862314168372 14.899778870448097 12.969634417737653
Si 13.286478650736733 13.869120139699442 13.491305184158271
Si 9.702139730337851 8.78298622704521 13.408319744099526
Si 17.837039931710553 12.711575731516088 13.793482546686636
Si 15.363356076436265 12.859607080082702 14.011483169433872
Si 7.516795642689538 9.909513437074732 13.339888895567025
Si 13.031312634406024 9.377863725716589 13.914917407064774
Si 11.18187993174536 13.563800843020266 14.55536033981015
Si 17.50353016705187 10.180981466391653 13.883726147807307
Si 11.026661490714028 10.709744191202441 14.460230559746504
Si 15.08424234490948 10.52929316884813 14.095646067428271
Si 8.436571196875763 11.903418973761545 14.380477409913228
Si 16.65720471183037 11.663064581751836 15.700884630932151
Si 10.085306441231173 12.15309693036648 16.154691827532663
