31
Energy = -146.59794719 eV
Si 12.430129235647533 11.200943004110496 6.25400428104805
Si 8.407228196295593 10.291079342691019 7.5526532893922536
Si 10.753900042211535 9.781364458765603 7.343431437990147
Si 11.708198406682698 12.465311291493455 8.184620028700882
Si 13.785064765983073 10.85419755980667 8.20971680086261
Si 9.628210021422639 11.661791931018142 9.069368769732177
Si 15.471138286515748 12.366725581787108 9.156360875374537
Si 13.327997013639363 12.952229287340309 9.872370867665394
Si 11.369646063485844 8.218126194050758 8.946645860640421
Si 11.615423539992134 10.502372426329307 9.882521122918503
Si 8.560587767492907 9.323051822800377 9.720263576267651
Si 13.49974101668027 8.932189810769957 9.511714068417449
Si 9.764262553306777 7.412090786227676 10.47242640887217
Si 8.642762281624536 12.65775125219715 11.065342558462307
Si 6.282384604338115 12.320346299179779 11.54919887406655
Si 15.232943651750237 11.405039694543648 11.415173287855643
Si 12.822002367649754 11.382417185866638 11.80982624551631
Si 14.288729931800825 9.293611005069437 11.700253269984191
Si 7.355061942663797 10.247360380509596 11.566789006603718
Si 8.837698622151969 14.713599096441042 12.468668947960646
Si 12.925165392445965 13.807046812076706 12.163639922880854
Si 9.759947220462237 11.146721333072481 12.538740526171916
Si 7.727482015837944 12.827961819820109 13.421234980037582
Si 10.418830272026518 8.847594084268925 12.260778949423807
Si 14.437497035886137 12.485724297925152 13.434709385239902
Si 12.502525002407841 9.55794868667786 13.289553526084495
Si 8.404316035441193 9.267578617020801 13.484778409285802
Si 10.897117372110527 13.901116680023623 13.249910823407966
Si 11.072699646877867 11.901171165948414 14.439136878173105
Si 8.795101330081838 11.225370488592228 14.813276963739241
Si 13.20189043883908 10.975849677327233 15.078572130976209
