37
Energy = -174.70167002 eV
Si 13.747737527612848 9.765655563375313 10.780198000562454
Si 13.045917278566085 11.927576462316633 11.463396137921402
Si 13.76659047672137 7.909909642522235 12.296647212030475
Si 13.622376843888818 9.640444724854389 8.403807009708773
Si 12.05104946083747 11.541947577958181 13.603574283942763
Si 11.891991795945502 9.26618265779465 12.786730358786304
Si 12.972082528328308 11.864334279255807 7.7721042235683395
Si 12.887044405404765 7.970631468226096 6.862253600371953
Si 12.03731537172325 12.957006153809166 9.653797243541767
Si 12.021286513295633 6.852321632222195 11.004767430626417
Si 9.658473495133244 10.220879331569465 10.823885884839058
Si 9.97406291736169 8.002439757525165 14.031877841390793
Si 11.65392151300653 7.450679579447612 8.824707702887997
Si 11.682691813310162 10.54274908449401 9.732530913178516
Si 10.020072512743859 7.9962683558865315 11.538988036760783
Si 11.915780420915272 12.047142021247614 5.679361361734829
Si 9.925841924976854 11.87978238703288 12.589568141605069
Si 11.511062679919275 9.935711472582815 6.727172454860074
Si 9.377470933486286 7.791270730138605 8.735554966895336
Si 8.75274538140234 9.95525835241868 13.477340576157207
Si 10.211342002029264 12.34278073242318 7.311687117487858
Si 9.99323195893014 14.012318258846372 9.009496446041467
Si 7.424931132088777 9.244206337902465 6.322397552489279
Si 9.229756028988662 10.124487025465717 7.618489856711968
Si 7.886098126398121 6.827273211823573 10.40394523481441
Si 6.959281276315977 7.396888141885882 4.828405647659138
Si 7.683574568159093 6.991112324440607 7.181611399323767
Si 7.826658587693823 10.754061122742362 9.411541745238507
Si 8.127074339275921 13.496374871919492 12.618545844970615
Si 6.341851672961297 9.492667498707565 12.387360488847708
Si 7.89582725710627 7.588888080536903 12.783232628550902
Si 7.025425424271788 11.455555026215624 13.356786337719926
Si 5.060013874126207 8.874241334209954 5.619899708604731
Si 5.877014989960207 8.383453225896362 7.925950679465848
Si 5.298292660453979 6.520536040120899 6.442078443949779
Si 6.615791256418344 8.870357660930388 10.129650061074772
Si 8.614762268990772 12.693051090003033 10.447100644426467
