39
Energy = -185.33153429 eV
Si 13.928383331675207 11.5360073990392 6.66795011732591
Si 10.107629679593607 9.957130129736292 6.974518656709078
Si 12.2138241678937 13.100924507560682 7.2901950665266995
Si 10.079035993811644 12.375492612124656 6.576523608788845
Si 12.450109837786512 9.661493025393161 7.223460017712703
Si 12.489253488404893 15.012973375946418 8.702458302123791
Si 8.56753005656856 13.56666808906705 8.067350312556595
Si 13.551273717289563 11.21293606485284 8.927602346267928
Si 9.205797429945555 9.799426104901483 9.2103388392708
Si 10.227832095644048 14.66178626691908 9.356523047180012
Si 12.578931641697283 8.872190044869356 9.462031516139296
Si 10.293185810220763 11.970816747702754 8.916140978505625
Si 12.242840380007168 12.964018491322465 9.975227613118316
Si 6.8931880065009326 9.841744208397737 9.691690235610695
Si 14.379176526394378 7.752200171004011 11.13186503667279
Si 7.912659782867511 11.997734133385638 9.768802444114803
Si 10.852250215115825 9.69262271599733 11.055449408266389
Si 15.031159238203115 9.840815676894273 10.226219940610962
Si 12.663588280079452 6.531572350453757 10.07384109926826
Si 8.22547513853135 9.912780876158658 11.679357184039326
Si 9.880898181617534 14.833676352501396 11.664649681889848
Si 8.740617338068313 12.392470071547832 12.001765958613065
Si 12.399990533730163 13.181840439642302 12.358666171648032
Si 14.714843818132756 9.971306829232754 12.544638507613993
Si 15.551064452262816 7.839249288856186 13.272611887810287
Si 11.747531248069063 7.567828753480771 12.021589818455778
Si 11.928838122722595 15.46743971436326 12.74796620132121
Si 9.500718392401003 8.17076347026336 12.68169250670265
Si 10.85489554798287 11.381026365028054 12.70686909115153
Si 13.257494137527042 8.197778615497253 13.70716409679908
Si 8.509419670934294 14.41790130250822 13.536869518292766
Si 13.643817167174833 11.72167631691991 13.674206688074554
Si 10.730368296043151 14.325083554593157 14.399373514193893
Si 7.104090284042761 12.475252114824114 13.799720657905144
Si 9.224812512665542 11.88040999489096 14.765280489013254
Si 12.294564998052007 9.92731854514635 14.929682170826695
Si 10.056534928711274 9.740668718141132 14.400137651221335
Si 11.002127179960793 12.771305037262774 16.032004912070306
Si 13.238826675042626 11.750249826946519 16.052143008961696
