33
Energy = -155.62008317 eV
Si 9.85648879668041 14.960004382558985 8.567074213875813
Si 14.510398101100966 9.408163585336377 9.19404936453726
Si 13.560874650054611 13.765904847219971 9.487466722304854
Si 14.767186371584401 11.674208148474088 9.771886908134489
Si 11.265029795162155 13.61442502419911 10.113070963973946
Si 10.550325396489795 11.226214043755952 10.277290497134569
Si 9.126678604844118 12.717309828467712 8.971591551962925
Si 12.683304656959452 10.076357812309181 10.637414419923623
Si 8.185874179600468 14.960593156366368 10.250574116734022
Si 7.314765388619793 12.45159399556379 10.56882802086052
Si 11.696022430692802 8.393078706257391 12.041029965066343
Si 14.663613959560895 14.719041152872194 11.451307495410848
Si 13.518233651137747 12.476380938512975 11.696919152978628
Si 15.54988526887943 9.166315116187162 11.475463550649414
Si 16.088234808822268 12.745832758357212 11.540296039901852
Si 6.121774257467496 14.436174569846319 11.348695214886101
Si 10.182406559264816 14.987658239330523 11.681180421520015
Si 8.144663548812083 13.856918565391608 12.492028307984052
Si 17.175100051954267 9.500207455404277 13.347929805979854
Si 8.848598339950474 11.228228087465435 11.962784443312346
Si 11.206917868369171 12.265695979487685 12.464792998728598
Si 15.251284251362252 11.056866867095959 12.954044874279328
Si 13.783729066037912 8.696186945932878 12.965377281508935
Si 13.185740624835644 14.541372036358885 13.280072745019204
Si 11.398632201636955 10.187020221908995 13.589944039539679
Si 11.294291560820884 16.008652625522473 13.547788175107353
Si 15.769398922215627 7.518204952360221 13.537625767143494
Si 9.007269204135431 10.13973525240749 14.144787528239384
Si 11.082479677962759 13.817427916312482 14.4715125448175
Si 9.184001596925953 12.486734792721291 14.144929334270254
Si 13.411009472595754 11.027161534524275 14.531880225446173
Si 15.245670853152504 9.442730076930456 15.0129148794436
Si 13.24458085889294 13.322065361140794 15.351913405905732
