31
Energy = -147.45557407 eV
Si 10.136027306801243 11.867428687622745 7.274166802527218
Si 11.527166035983468 8.583486817597953 8.207026455167393
Si 9.57447447796187 9.507377829041253 7.173302310212572
Si 13.573756214762264 9.862198908299645 8.273073136020692
Si 8.822535853760531 13.086159238022093 8.904209628219066
Si 12.159582355317964 11.705016057533609 8.535413725211027
Si 12.18704015852036 13.735664529324369 9.66753356010649
Si 10.2141983252347 15.041321315100863 9.176893559309383
Si 11.23921779552904 6.386412149773561 9.013041057417635
Si 6.508314496038195 12.922952671290403 9.496168409146716
Si 9.739761909746509 10.663230005361143 9.33868306579301
Si 9.661067238168336 7.716442326079757 10.181779362413037
Si 7.940117540324621 8.894303656084679 8.9236287481508
Si 13.33554007122973 9.56173398703071 10.644771190020915
Si 11.061193393574717 10.02569264247615 11.133476888392579
Si 7.434674462523331 10.84036894328162 10.248956239879966
Si 12.245376194582311 7.451583569737753 10.907943644467233
Si 11.63827062788272 12.402071971199335 11.653269716414759
Si 13.441376927829472 14.205280199766511 11.650127477350583
Si 7.855762090804395 12.962508361780344 11.528898836066679
Si 9.910351818436046 14.073138093287325 11.289034285557243
Si 10.103649508986638 7.830727646986219 12.481756712459914
Si 14.732310016342362 9.865232088972727 12.561993387226943
Si 12.14730675374947 6.901190161243358 13.199214734898021
Si 7.549176026145395 10.904497043479028 12.622814282560533
Si 13.852963507518291 12.05733592389455 12.692628670638554
Si 11.478416282524709 14.508967597776113 13.078285017476587
Si 9.758058237062045 10.09946633248517 13.135222244829539
Si 12.646165168350539 9.225507477219187 13.579755723969912
Si 12.0112004927382 12.36878648732399 14.053998457724012
Si 11.166040774140118 10.39500934349758 15.024024732940415
