33
Energy = -156.31736493 eV
Si 9.767708112253617 9.973076957782316 8.719661603878608
Si 12.116334087980759 10.156842390238037 8.102966140395358
Si 13.775987661815876 8.534794221151612 9.079865677203184
Si 14.66565243654423 13.161453551494871 9.462606601279807
Si 8.882625700714764 12.23962361649841 8.877820047686408
Si 8.710689599283516 8.958085825281524 10.579275805605276
Si 12.438090979998016 12.25163308267896 9.167749837821901
Si 11.63636460623741 15.524568779829801 10.890021666474112
Si 10.632397813414023 13.449887506157964 10.011003900420876
Si 11.754717407823634 8.739972048032973 10.228018366336176
Si 14.03387615943584 14.960542742637664 10.908111123386504
Si 9.853304190508526 11.16569173034725 10.875400841947144
Si 7.373287519903593 11.977602263122684 10.675303615090654
Si 14.102592879888402 9.763409458720613 11.125550640783455
Si 15.497316083636973 11.803936523056267 11.308983627165356
Si 11.91831852238919 10.553282795590833 12.041550337271689
Si 10.21533609627807 7.152429101395095 11.116409709028622
Si 13.213278652909713 12.58213840617081 11.418465224116744
Si 6.587380404746808 9.779850180215634 11.33913871221585
Si 16.839314070474444 13.017116975143043 12.965160025685645
Si 9.831982743900934 13.892377884297352 12.325052645963204
Si 11.01455299333958 15.84347061459858 13.159585968036795
Si 7.4964386132183005 13.283334545220843 12.678992829145317
Si 11.125121246890837 8.379424180172013 12.964458177942934
Si 11.322700155959742 12.445187446660052 13.527956423380825
Si 15.231660215735879 14.921763108249591 13.082934536480076
Si 13.4686246733019 8.875367046759546 13.310143494244578
Si 12.91201899984258 14.320658087056852 13.130258202698196
Si 14.698499703892125 12.452197586071845 13.622060703752766
Si 8.177580962325417 10.910054552367601 12.754096198038184
Si 10.071405715941268 10.165887350097147 14.027164262047346
Si 11.158249137275305 11.534874142594614 15.688659499887384
Si 13.133497336642652 10.886370784812195 14.492479039093277
