32
Energy = -150.12354683 eV
Si 15.096162568983885 7.053268890117232 10.446598551092029
Si 14.36570971469804 10.292735783751604 12.65580301731244
Si 13.802087425496632 8.053700759722476 12.13750760882984
Si 15.322630106295335 8.783722526309122 8.699377606894592
Si 14.513305942740077 10.25062616319544 10.316666367646356
Si 12.801249593098602 6.928218988814427 10.02247805678102
Si 12.004346791126569 10.316053399318372 12.455172892432214
Si 12.265154870603174 14.152141561053936 9.650492841866493
Si 11.281925624131862 9.156029412692368 10.496185555283326
Si 13.168041864374052 11.945881044469488 9.202422356591123
Si 11.046696271915366 12.047609710320517 10.564711913389864
Si 12.930988331959504 9.083597442199766 8.741794416946096
Si 10.781993508432143 10.563257386372637 14.451254676366919
Si 11.426193925273916 13.031309726033586 7.623302492420764
Si 12.353222596039547 10.8114963783345 7.112302115918061
Si 10.146401391401886 12.227903350047049 12.862088524635377
Si 9.324260021608145 6.823895458570601 12.795865595340482
Si 10.34029099277011 10.861886523898557 8.459280694965456
Si 9.05556643409428 14.28260589203407 13.252446018595684
Si 7.011648953413263 10.062648831844962 12.982468712816154
Si 11.592032935116134 7.184272142071975 12.025350718884978
Si 9.216699275780401 9.12268257877046 13.394050733971124
Si 9.060172546262192 12.964698123316873 7.729689770059211
Si 8.727375166272278 10.797330733266584 11.37791197208813
Si 7.558969554534785 12.409120324002984 12.874181796223855
Si 9.78425341086696 14.003033752236336 9.787625260809328
Si 9.047680787323264 8.4035144451341 10.97389716398706
Si 8.262546270415573 10.78071491458538 7.263026873755231
Si 8.367173601084993 15.364871734247991 11.07269591470403
Si 6.739727210093352 9.378328529180246 10.663554954242203
Si 7.402410320746729 13.241418149349702 10.656673419523617
Si 7.33761935931824 11.33192922004172 9.343301308710107
