32
Energy = -149.81069257 eV
Si 10.80766639383996 5.9657687480046615 7.53488891510016
Si 10.561943426467524 10.522062745627169 13.95247795498513
Si 6.534802207925946 13.202114722984094 10.609358859795531
Si 6.749393001718517 11.014599469628095 11.560059071692358
Si 6.024773902249319 6.989577224872288 9.795184045207714
Si 8.805817047974017 9.465759260885704 7.92333418663568
Si 8.185890284346405 7.293564254641706 10.774928539384899
Si 12.71721892266822 9.864051485859324 6.7581370017864515
Si 9.504916934609833 11.77722395771851 8.71674140586464
Si 6.969303804602752 7.877475475033484 7.709604684941137
Si 8.973748251030113 12.890376716107072 10.715912731859115
Si 9.007875563678065 11.123082352400445 12.289034737609123
Si 12.876600679322062 11.727378449237873 10.379223383013663
Si 12.003226797692399 11.93613169108899 12.593469918790817
Si 13.434002215390006 9.734099509477621 9.101671502791392
Si 13.617032746900186 14.06398247759342 11.10409508590076
Si 11.78640823046711 11.559096160020708 8.15050543915805
Si 8.626540348675203 9.574375485441443 10.328231443595516
Si 14.335256446050135 12.036078337985108 12.27035822748767
Si 11.180487649586398 13.650165896705962 11.17677822373698
Si 12.035930867294136 6.276437514574018 11.368399447821297
Si 9.026429307889563 7.317779539673778 6.6418575339880705
Si 11.070427045970172 8.487473098734682 7.845916021759383
Si 6.629608039190029 11.494827463507146 8.94810628469068
Si 7.977142043813425 11.531072945844215 6.9678404189994225
Si 12.373119615962406 13.78305486459045 9.009727691034488
Si 11.809914712709018 8.557055237901503 10.331320456746823
Si 6.004413835036032 9.459529323898225 9.991183851550803
Si 8.290318240097099 5.884315545527427 8.568792408149111
Si 9.840964901073647 6.622711891054251 12.466431576289382
Si 10.437386434534695 8.96242502197869 12.154317544233095
Si 10.352778902678272 6.691639179138764 9.814165599627007
