39
Energy = -185.91115897 eV
Si 13.249166315981492 13.567418958111656 8.791736404539842
Si 8.025273156384234 12.380650000369307 8.911715059465704
Si 11.25123490726658 9.654008118800819 7.874908229783707
Si 10.10370681448419 11.703572694154902 8.080687498649102
Si 11.146699980599827 13.801343458425535 7.77406903138091
Si 14.792658488116459 11.854548746930757 8.253057362323723
Si 12.941141324653724 10.660176321322936 9.247924031466292
Si 7.6622371963759885 14.698651408257422 9.243573026594156
Si 13.109176641675948 15.189045255834705 10.443781440043082
Si 10.011187250860054 14.972468358263649 9.499945025159418
Si 6.748738069384081 11.387769074946203 10.54908414100338
Si 11.183008935278076 16.436962698285296 10.986850524696518
Si 15.038563672403901 12.318117582205272 10.562031082260335
Si 10.174686758536362 8.656599874477061 9.705296724095929
Si 13.630541465930364 8.823901518406991 10.815720558975599
Si 10.113917928365687 10.745671508209409 11.431153667890085
Si 11.753309392758188 7.311139600604134 10.884895184788709
Si 13.220163675704688 11.264188458578092 11.736049947682886
Si 16.68183444424373 13.416222725218939 11.909765549687656
Si 8.352619587193162 7.299886711731908 10.398788953099297
Si 7.793506926120288 13.415819496749348 11.209632760586148
Si 11.16684654979088 12.602550179121545 10.0805101710172
Si 11.65367355799048 9.26714623834411 12.368184399656364
Si 8.019223455679422 9.47801739176915 11.259661971944363
Si 14.744582313364894 9.387569702601997 12.83573986256558
Si 9.83105774348384 7.402254557409927 12.364923589661515
Si 15.740066318514433 11.489074524001364 12.953736091843032
Si 10.727038121370182 14.260355779722072 11.91816860379668
Si 14.411741386719118 14.148432927707184 12.066830778545926
Si 8.752847957842599 14.027541694757408 13.277956925405094
Si 9.574205532076178 11.804699613389541 13.501474376008911
Si 9.711144351011184 7.771149021815252 14.72232783097038
Si 12.480244821476193 13.08735152584712 13.112730135784345
Si 11.869509982692476 9.00209778111799 14.670891507209419
Si 11.426728523219802 11.329966644873865 14.861317426112711
Si 14.252970156184183 11.178848709916364 14.764336675373187
Si 8.683483525008556 9.598312567682493 13.5093617308894
Si 14.263653435519764 8.812624212030554 15.100187362283776
Si 12.902988645499489 12.989223667767437 15.516373666519684
