38
Energy = -177.68179387 eV
Si 9.711083806317006 5.859185460846921 11.785705630199104
Si 11.331907429605259 8.080241439452301 4.924541537789852
Si 5.7154708209178136 9.204460068680033 4.4120398878483
Si 9.755263311498629 11.210569093258863 9.012625355635198
Si 7.016221257345584 4.487592920794936 6.975605666905638
Si 11.710381433884189 6.4450355301083775 10.53483684251385
Si 11.96979109347788 7.401085173502037 7.112510187109018
Si 5.013852562554617 5.894444942914556 6.257307852517416
Si 3.8664328707106623 10.244405178319655 6.170760740798053
Si 8.22643477297082 6.505488227234919 6.409077698081405
Si 7.917412614428019 9.718803281656204 8.602994088081912
Si 7.012300852580567 7.51297773518985 8.962497293324429
Si 8.400689643747526 4.338717795667337 10.515882329684755
Si 6.416211245819143 8.083792231683464 6.629747469920368
Si 3.9249631427138136 9.995719855963134 8.59510239090246
Si 11.6446592663564 9.67838632690499 8.195887104889207
Si 10.589962911088394 8.598513880784694 10.097609933514939
Si 6.592573108485005 9.247516989818823 10.702843330754561
Si 9.367561599048887 6.644181228586782 9.40966995513865
Si 10.348278943160171 5.912954837253097 5.347516746836147
Si 11.415535801145952 5.3944190292024246 8.332003209449958
Si 7.980284308687566 9.202049663336167 3.4703381589635285
Si 6.008751203547718 11.212103274657578 8.997400664394725
Si 4.54342932971751 7.933373769782278 9.577598376718175
Si 8.969246975008776 9.996820720170817 10.940774227793636
Si 5.769282142689547 5.397583367120101 8.854757500575545
Si 3.4200167179647805 6.02314406065381 8.528183619502377
Si 6.175759379645531 4.772430233447423 11.168512380844104
Si 7.543799803039088 6.769772365408077 11.321623860803427
Si 8.588106657347906 9.942728520076683 5.657195415517026
Si 6.42371883933759 10.52469412712794 6.655844534172333
Si 3.398015177748537 8.369104903301468 4.6926792817523015
Si 3.9442282024470123 7.925351508786114 7.075715436355241
Si 8.741355418025945 6.9430142985891985 3.870738496369236
Si 9.71461118833059 8.398954044637208 7.198377723019269
Si 9.099483371291171 4.518531908084333 8.238333983524175
Si 10.95950471235631 10.308017357339509 5.907298650725891
Si 6.388066767859336 6.918483332558804 4.472511119974662
