31
Energy = -146.42468312 eV
Si 11.862628213193558 13.224052047963106 7.266018174556212
Si 10.880096616090214 9.131972150076441 7.211718122422994
Si 7.8544289247484835 11.95854625430103 7.710570234289156
Si 8.719699450067155 9.755848104147836 7.910673033689641
Si 9.799773515833705 13.269095123690128 8.402732481707973
Si 11.47064814124379 11.144307694893762 8.362445930600751
Si 12.993077018496518 13.337731397878878 9.361837843166853
Si 11.160793444883467 7.471800677717888 8.947841721199522
Si 8.96765720032797 11.31699441002486 9.83417293576086
Si 13.311058200621535 8.142439173789136 9.754176258867167
Si 15.014265356675882 12.240722197160439 10.024055516277711
Si 13.342484164988832 10.621145178936281 9.805383743032944
Si 9.52133023659756 14.378783310995143 10.489966932785867
Si 6.4430785422181405 12.141891021089855 9.694163399762132
Si 8.22372637035774 8.880643727533688 10.005597732631006
Si 11.25249862614294 8.789056291828139 11.045395632903181
Si 6.953994272748121 10.428464076036482 11.253065200201087
Si 11.12285573192969 11.15125907762389 10.965735901731353
Si 9.469702779108058 7.001272149638164 10.761911356835563
Si 11.564717630391984 13.53371322512457 11.240846704915164
Si 7.846062772220166 12.985038893739429 11.38749687049553
Si 13.887787585987496 11.904961261024587 12.126488825675555
Si 9.534336463375805 8.296185033931035 12.874238498546829
Si 13.480857322334883 7.908161480194829 12.150964073565754
Si 7.427860657496914 11.654597763215707 13.311273112714758
Si 9.604358375746399 10.717484112929682 12.927690285324251
Si 13.863180385101865 9.913390812955365 13.316830507123719
Si 12.682680023577069 13.529418571015608 13.346669889686622
Si 11.7580938989335 8.365353604293908 13.638806308670922
Si 11.71289062121992 11.3894773686641 13.857932646686177
Si 12.626773081431898 9.769589431677451 15.366695748263858
