35
Energy = -166.00319906 eV
Si 11.964933139420806 9.861360026107377 8.06995236137344
Si 9.975347952594703 13.808480501544562 7.952649587529939
Si 13.470796124972388 11.282304769147377 6.988378823614431
Si 14.294836883682358 10.181862242718674 9.066531509578018
Si 12.110572451125645 12.767141599393375 8.282744763417151
Si 15.016442804177377 7.90612401268457 9.505245881304893
Si 10.27684673182086 10.423345640089254 9.571691534951023
Si 12.717480048821413 7.778373649226295 8.878305323158363
Si 8.781384191641221 12.125130149503514 9.162890067951553
Si 9.969798356890484 14.434115114826284 10.218660500917178
Si 6.642794568801231 12.228332985785379 10.188450114764967
Si 15.064398203736207 11.911816936655752 10.459011013425254
Si 8.192186798736873 13.575560574847797 11.396176389580033
Si 12.4375138530162 11.196392926145087 10.512027152765404
Si 13.45265944052555 13.540518589969693 10.01291924850772
Si 16.13208042730748 12.080814775516277 12.595653673889236
Si 11.39434515448642 6.906789120448414 10.594900303221648
Si 13.362629893691103 8.01400983532567 11.247585518564705
Si 7.582883913375884 10.449402415763808 11.465837898491733
Si 9.7115592052599 8.605430339204243 10.95494073769843
Si 14.075962464209024 11.37426483039901 13.53400350885103
Si 7.3570717597592985 8.100131885315397 11.308676659315875
Si 11.557511668157671 14.851644619189361 11.86073022802325
Si 12.645132878418629 9.90346115863052 12.44971267708502
Si 8.649732653022957 13.590726902663018 13.719416435473534
Si 13.770106815369303 15.397583241647801 11.365471504593279
Si 14.447574392990074 13.758617428911272 12.982221773578285
Si 8.312307205622325 11.230292961686986 13.584137624359945
Si 10.330624181553503 10.097552356592251 12.790195001626618
Si 10.46987497702161 12.575939390506768 12.181508461757264
Si 11.01505544390825 14.134333837032793 14.039329007723934
Si 6.951546346943125 9.113686084441271 13.647868655197213
Si 9.017364157206664 7.752322622505758 13.218041736283093
Si 13.176915812224085 13.085802255032123 14.829867911514658
Si 9.234231623370647 9.518836744403226 14.926768933773635
