37
Energy = -173.05280011 eV
Si 11.787107984688657 16.150696148654923 14.672939622794546
Si 17.462725777703675 15.285188017163124 10.703016649321953
Si 14.32769726581474 14.16346912097207 13.057311077453772
Si 14.392410251994885 14.451923640287424 15.424970656420227
Si 14.132333861282815 15.718297989574372 17.807702104024514
Si 18.816532878314227 17.091824989117768 11.455156525948356
Si 14.575682417343897 16.776264060032336 12.933313469501114
Si 13.158168397837827 13.735416199042396 19.615298406811224
Si 17.518921213648586 15.768898243456636 16.739812183936763
Si 19.01411721363121 13.712747084062498 9.687184971228497
Si 12.393875285512918 16.141073560896647 12.312752202653321
Si 17.785227932663794 16.949865690572445 13.586114148582324
Si 19.29164711015588 16.544076299180627 15.422213160242471
Si 12.797132374245118 18.128460892869004 15.649638091972381
Si 18.398675447389532 12.836173760900063 11.84053237200373
Si 15.43130833820557 16.49417986475694 15.970794157007779
Si 14.977196018120786 13.31520297540761 17.424005587893493
Si 16.63270356120118 14.096965497519015 12.727161088587936
Si 12.178980744668962 14.625831042747308 16.415871888805103
Si 13.17743149425353 16.14441090859343 19.95705820459886
Si 19.925979225889783 14.944504379993083 11.575837560024707
Si 13.07656775535345 14.140951745380988 11.041326217628194
Si 10.986120117498517 14.562527095490909 19.425091727560755
Si 17.0483811969988 12.038313295057876 18.02354760785078
Si 11.448970498495944 12.878460305396024 17.78879150587976
Si 20.385817713607278 14.28580631457781 15.658535299516261
Si 10.760328152610006 18.31757876001188 14.493716070751722
Si 10.127016505384713 16.605840298592945 12.981529308683523
Si 18.099773762136817 14.586185118047801 14.520318374138538
Si 20.1314491323953 13.431459054355233 13.34323264493362
Si 13.528737025754651 11.710491302412168 18.542456212371217
Si 11.918724604140728 16.77712493024068 17.464506833025926
Si 18.234696218652896 13.395297303345393 16.547015031284044
Si 15.843871809117065 18.183692426983846 14.3491744457505
Si 15.080776468951209 15.562639072096491 11.021062608691896
Si 10.855823583252816 16.907285973450612 19.571611129882196
Si 17.00977045115967 14.373734011730566 18.622248702250314
