37
Energy = -173.86605738 eV
Si 5.2489101124145146 8.863139531913175 6.959700851845163
Si 6.206729794960071 8.262706821407647 11.17297107563477
Si 5.330770030493923 7.44372198771491 8.982429892116215
Si 4.563221943858228 9.75236072564471 9.298081133371655
Si 7.368788624850598 10.354731623074072 11.426208049588954
Si 8.591374548798031 10.693053555251542 4.65539544614828
Si 8.126349801142231 6.751218082085044 12.903714366086168
Si 8.813597514559163 10.935105464851484 13.174072268440277
Si 10.358770627929172 9.507761262411417 5.641033007028802
Si 6.305718492038844 11.533494182159382 9.698878845744277
Si 5.202439446994377 11.318289422377461 7.487497169977894
Si 8.467874181612654 7.610165131525425 10.670831278781396
Si 8.214545002036367 10.441123462855947 8.793509682136925
Si 7.433772848524005 8.171757892291392 7.9740160360170185
Si 7.394267927239349 9.112229759605821 13.779530608293758
Si 7.224055489962745 10.325236407208306 6.5748518374476355
Si 9.99286178864712 8.354432541538875 7.627655775040887
Si 10.0434544803109 12.292299572866035 5.7933035441699445
Si 9.755091011917623 9.788732409419026 10.6108581628263
Si 9.704313989171268 8.668979394516716 12.789888366169045
Si 9.8748626751182 12.080932414443474 8.166670443337802
Si 10.723608380882323 13.651558708630583 9.766852913878882
Si 8.789039750684651 6.3509789743017535 7.060224294356325
Si 9.778114811235644 6.282683258783841 9.238806272688505
Si 11.466166282093118 8.473838561012288 9.426619939945082
Si 10.872847854774715 7.069640337819913 5.68561261555295
Si 11.191971341491508 11.624238951409996 10.97874526981946
Si 12.096158949210814 8.493580079266414 13.150872211396308
Si 12.911662006243763 10.594731759577115 12.238237157702818
Si 12.166050157826337 6.127702262352595 9.627599884166878
Si 13.18389074069844 7.909014471081701 11.107063053985176
Si 13.224239715528563 10.280914442896592 9.922287569701178
Si 11.832921087823296 11.024281576510583 6.808641216758902
Si 12.419232137908457 12.283091759517133 8.798577488441076
Si 13.40112921840265 9.439944797862251 7.7056064303815175
Si 12.470685936772771 7.253806077464294 7.481956247546788
Si 5.808928739308325 7.43693977981601 13.379617036941111
