40
Energy = -191.54321667 eV
Si 7.776444570527642 9.237381411288833 9.73494762603718
Si 9.810439162328182 12.168170293177345 8.779102291671508
Si 11.450786335014763 7.325206987060686 9.702916286396308
Si 14.679949623752284 8.922117889037581 9.743721217874029
Si 5.819271674311491 11.426763873539558 12.512201579822552
Si 12.846827271852034 12.277207925436494 11.591692538091193
Si 13.653694656737407 12.15721815354297 7.527485291873231
Si 15.294303904723066 12.319089320998259 11.303627250940764
Si 9.833599444316045 9.844460327547322 8.800146812562362
Si 13.474098526398011 7.2036483152721935 10.785441830335644
Si 7.561364043841686 9.712737525724997 12.331477300801838
Si 11.415200492503054 8.524617560010547 7.642932806984111
Si 9.889222854699335 7.164777191522741 11.422200945509012
Si 7.470287577421978 7.5076629685454686 11.356758807309268
Si 10.441718149905016 9.47491927517709 11.088631619082898
Si 13.879443519442448 6.630433941071402 13.066760509937659
Si 7.8175235728198125 13.16371169789369 9.497113263152542
Si 12.502973107977914 12.24158957660073 14.114451836717745
Si 12.984849190769056 10.102449012948684 8.55575821322445
Si 11.652955380048072 13.32560167911449 8.006211479129693
Si 7.696745064177824 15.082435388281421 10.84796986483661
Si 14.31353869404241 13.44541505827019 13.15491328685155
Si 12.825931999054257 9.9123716976971 11.073475427025588
Si 15.30032565666569 9.963781864037834 11.776008940545374
Si 9.765377941819798 12.652081928267684 12.996905761183234
Si 9.667988238396012 10.345180726581491 13.133527305004222
Si 10.777546972516193 13.033522178498004 10.786249037303785
Si 13.616986635523716 9.04285524320518 13.31458569083562
Si 6.784773188540335 11.271751983797147 10.363231548207832
Si 11.611207819508392 7.2847176473685655 13.06596823325996
Si 11.153772508929336 9.092683328546782 14.427298686699134
Si 13.054074706962096 10.242321954733203 15.298582850488069
Si 7.605992220289779 13.020069322315608 12.074850599738781
Si 14.019380406495873 15.68659951058634 9.946848646208746
Si 11.790957134974951 15.160909642123684 9.462905080462727
Si 14.115625534383591 13.344212020459272 9.512885702851234
Si 10.100363364308238 15.305670359453504 11.109166320517371
Si 11.217235253520116 15.97252384777474 13.156222184363166
Si 10.903730476618986 13.961710006308047 14.515011984724502
Si 13.044572770968287 15.070501013267338 12.040892988524005
