42
Energy = -183.48332969 eV
Si 22.163241116728873 12.629174110662325 17.311118728803653
Si 10.923830212801942 16.88732600632433 19.949313263365358
Si 16.537132492686695 21.376822912007462 22.51619964983962
Si 14.291748887670076 17.36281232935089 21.39941753451452
Si 15.635288975280593 19.079488953065177 11.296908394756528
Si 23.482462780670506 14.572118029219165 17.21361894246982
Si 13.305773663468477 14.966114093756133 12.220104961092598
Si 15.481983893263383 19.30176414351847 22.245246804828803
Si 10.9541984058752 14.452900590194627 19.76351208783359
Si 17.13689258266186 17.468327346233647 22.42020948723044
Si 9.00209656246788 15.743968501940858 19.731722237848658
Si 15.03429355731664 13.785813044382124 13.184786834253986
Si 14.388945178692168 21.035432479808193 10.739840323865973
Si 14.300371648744644 20.398517283556057 12.968833371672444
Si 20.77512498789372 15.800817262563966 14.35455454539245
Si 15.77727179290884 19.961625742310364 9.194467300479285
Si 12.748248730528294 18.585190476239944 12.756676139259447
Si 12.928932103974295 16.51655434891591 14.229919058032058
Si 14.22720054173591 15.263325559666429 22.4367573127918
Si 11.121273405166447 15.403876547374324 13.05801121145429
Si 12.971751263745604 15.456256576978474 20.434028193585423
Si 19.289883145288833 18.42321041085969 22.810063993333547
Si 10.856256605591938 17.700463454387716 13.825508417788015
Si 15.21689520954383 16.011035406268952 14.016709239164282
Si 24.192200311911545 18.143412615498207 15.386893443896456
Si 23.204584031952027 15.957210256321028 15.301073655036534
Si 15.513355202904696 9.756041222451792 13.807705428909001
Si 16.25892020823397 15.770609135722927 20.973521283568108
Si 13.100695690481501 17.48333110466032 19.18352361741031
Si 17.050224682641588 11.033663334293095 15.288936091301753
Si 22.785883946940267 18.827775593744065 13.447581931163823
Si 17.491220250328798 19.58531673015345 23.83404069558786
Si 25.064261766848592 19.286434885194385 13.53815550104272
Si 21.58451165489292 14.078761355222984 15.715533708675416
Si 16.332697412863446 18.130887936015142 19.9655288082271
Si 14.19464637352877 19.438507409924267 20.097699792685415
Si 17.915921438770695 19.717288618053143 21.326168084910545
Si 14.417262651526103 17.09150225517332 12.004512278329123
Si 15.069247362238428 11.935716108621431 14.479422371320892
Si 17.454315971446498 8.877061119888966 14.64583986388505
Si 22.63268390205542 16.41194603722746 13.108654472372882
Si 0.8668638088208358 18.893242068578598 15.385326754266902
