44
Energy = -207.6798314 eV
Si 17.700641856506326 10.918923725611947 11.061766326934448
Si 15.760808555186705 18.696174476340346 19.631758965311384
Si 16.795640241094937 14.828460978230758 10.523941604843776
Si 16.019265741156346 12.55882913293191 10.563211175727012
Si 18.08322126048526 19.018128692577275 14.436576853637575
Si 14.652990129085774 17.43049661206221 12.928152761746244
Si 16.836172085637255 17.02461823505219 14.077523792194972
Si 14.81188759029524 14.991590199756477 18.90116375596442
Si 15.824805294638763 10.291445479878242 9.731536489576648
Si 12.965718632425778 20.544096389827526 16.72050690503616
Si 14.77464470731303 17.348460337060672 15.497178301377092
Si 13.667941495407637 19.460516004006085 18.7296554454268
Si 19.10688097724063 12.629537300881937 15.918836797647808
Si 17.110468940684974 14.977459366609922 12.87981404287876
Si 18.271778273254508 20.322741267747396 16.679226488487146
Si 15.06625545440419 19.747844483477248 15.822551323328977
Si 16.330694218328144 18.498150251776877 17.36443710846106
Si 12.506903982002212 17.70443647344345 19.88111381526668
Si 16.864333126679824 20.99267686193983 14.834638453593946
Si 13.15185159858346 12.612476311117513 16.443139675273805
Si 14.138525505588065 12.89581416158267 12.111131722765423
Si 18.095869875909898 19.335636523963036 18.89007019317689
Si 17.208552771071492 11.194884260791474 16.72971974634142
Si 15.40775796962185 10.631461175234024 12.119989485956085
Si 17.440276153752162 11.008347239350153 13.373945155397976
Si 14.619824720247912 16.654475912801143 20.62932622488869
Si 13.376450174152863 15.209881531415078 15.170482497017364
Si 18.375732667070476 12.763412655228432 18.183740919815115
Si 12.492057491469897 18.26205767882442 16.341129695234365
Si 18.89222708068096 17.79091311722944 17.153715284821786
Si 11.93012637518632 12.080809423111907 12.256138706284846
Si 14.029883345787571 17.077655886833835 18.043553157697033
Si 17.383938431517915 13.09374451059605 14.376611527761096
Si 18.78271004961958 10.279974197139436 15.247585903750208
Si 11.473320874489344 16.666853517497206 17.900552907717152
Si 15.559544200552734 12.848832003159039 16.10767809418844
Si 12.905471982006453 14.747173751065366 17.53587745787283
Si 15.044628849709385 14.094030094309316 14.021347854369544
Si 12.602472167787276 13.073940918151088 14.177810669087684
Si 14.813025015409632 15.296277139205248 11.797220666362836
Si 17.06827141758415 16.409705359892232 16.43568562729847
Si 12.596883292116226 17.241769130413477 14.168993982589564
Si 20.135025619890076 19.154636007445053 15.677428292271742
Si 16.657274670171578 14.348166951449665 17.553910668678455
