40
Energy = -189.71195133 eV
Si 12.539949407408773 13.018450204250428 7.010381612667272
Si 10.803134784804191 11.959739623791787 8.282731670444772
Si 10.437070750985656 9.798939148990033 9.192827297809462
Si 11.906807592083847 14.749960573152915 8.6211429861294
Si 14.365304964679622 10.435486059575249 9.933240640983406
Si 8.709820892495193 13.079059554703631 8.679391592898062
Si 13.378090300740613 12.450525720988594 9.154360566906655
Si 9.687084127170618 15.069583883405391 9.447040617246067
Si 12.252862703700263 9.568623196286941 10.6592133526814
Si 13.228198513602576 16.34674791199667 9.815656030638168
Si 8.772782160132456 10.010875622349431 10.877569265172982
Si 13.846579664209903 8.224376379061116 9.181794036627956
Si 8.92419439422504 17.184092350363333 10.104061032684186
Si 13.366446607897803 14.171396204686106 10.672564947339527
Si 10.149168109525256 12.0326794773217 10.604693545122894
Si 11.116560747532093 16.64069127371428 11.013555585348616
Si 7.650475820886545 12.084955317875911 10.562002941963799
Si 16.086503776113098 8.49784869358984 10.198261944573268
Si 12.54526585804373 7.200061002312822 11.193568735758285
Si 10.51682512893016 14.300919362771875 11.751684238992734
Si 14.686714917783934 7.778424072121521 12.053301260307846
Si 11.648737052407226 11.186516697285862 12.484245187564452
Si 15.3459860256532 10.104460086105359 12.070513451998595
Si 11.726042970903475 8.499268864795498 12.985352103402038
Si 8.287175183265688 13.541681593449905 12.344661219168175
Si 8.417643879345894 15.871527163312695 12.147737735420012
Si 9.687669355917857 9.782506039916802 13.070318863914467
Si 12.975524357573887 13.26049307384538 12.800601908356702
Si 10.479631889434398 16.36763342402531 13.255979880848232
Si 11.380727613634486 14.330329978028862 14.09795024091306
Si 15.077519156827499 6.640027234388137 14.183813910228807
Si 13.041072795398373 7.879340358624647 15.024512352093998
Si 14.423351215211675 11.693331601049652 13.808016635666833
Si 16.656691193240594 10.83827240055908 13.92444532352709
Si 15.330609583613507 8.891992640303389 14.350467320070402
Si 10.783862416397419 11.130808974243788 15.259749749091588
Si 8.838368488028026 12.506759698765112 14.423316524542878
Si 12.859881660583923 10.19964678945152 14.568647326781319
Si 8.573936277712711 10.20397615430821 15.096686533509088
Si 10.377029981405084 13.34929391373601 15.975242150110791
