48
Energy = -225.4828897 eV
Si 13.95908530973393 10.657097652200424 15.74459473943366
Si 16.648396172228303 17.02244866233728 18.747092375413487
Si 13.4033010478169 18.354095278745486 16.91994589262982
Si 11.9078988350107 16.048449367572793 11.523153398321703
Si 15.367153717594478 10.054404499767616 17.55575173134027
Si 15.13858491538386 17.769809524069025 11.421876333308854
Si 20.47175862545613 15.496206718592493 14.912332792034361
Si 18.82554517512769 16.92232952884561 15.85847690655174
Si 16.896562799501332 16.787351948359426 12.62449649666046
Si 14.667214105793215 16.47951545947305 17.610413430689064
Si 13.245932400653574 10.062215728045905 13.497542210808934
Si 11.912941667810259 11.174031121859898 16.941049592092646
Si 20.10123893703402 11.306136160362229 15.10803113011774
Si 11.26563275930209 10.606357088726696 14.732687832538364
Si 15.263800522492886 12.403009595425885 18.41167101769496
Si 13.053805536558379 8.82170425223968 18.05645512688145
Si 12.881874018032365 18.083873001380766 10.746899732077631
Si 9.125701844572625 14.065954203114881 15.384529517938917
Si 10.316155401086114 14.965951734779843 13.434505684691183
Si 13.26335027275032 14.000910544795602 14.982169413612377
Si 14.940924003908874 12.827707273668834 16.073549232578983
Si 9.915243312008347 12.357145825015078 13.943941532156483
Si 19.506624769313024 18.955479879464473 14.952277155245637
Si 14.749382161141753 18.916941418024162 9.359252260386123
Si 18.695542324723924 17.616141421928663 11.361762753907037
Si 9.877190528856229 14.995899824096496 11.062198179222323
Si 13.656085843257616 17.758801293233628 14.615769964788534
Si 13.622327252154362 19.1535679373079 12.699243654950052
Si 19.218885937846615 13.45068791630284 14.739726072015614
Si 10.92077781967973 12.963112648762033 11.89353872540323
Si 14.873822481239976 8.822738988314239 19.63606330080457
Si 15.721722981519253 18.725428772413235 17.288188367675243
Si 17.013189051592054 18.922920198040543 15.186668456256726
Si 18.42940673285863 11.848599287940067 16.554239093177383
Si 15.319548001415088 20.196869675004148 11.387280640804397
Si 13.76393432728167 10.918397485776055 19.544964727948578
Si 18.029817808508696 20.773137477451407 14.25810588530632
Si 17.30180955743004 11.19510675277236 18.527333627806094
Si 12.55136809595807 15.83867409686542 13.7626088618296
Si 15.863871043362531 16.896026069900035 14.717480093643633
Si 17.127450058697786 8.806682278537245 18.69684752235092
Si 17.115723642753373 13.614435772262983 15.725742581800906
Si 16.868520073070137 15.804287867284478 16.593975645999723
Si 11.515085789109715 10.321021840701764 19.11307898998175
Si 12.683378651994158 12.382461248154671 13.35830180232026
Si 11.30017742981258 13.265581643143646 16.01545238532671
Si 17.311472666524296 19.316487989787916 12.49207498949862
Si 19.6115320845201 17.07427479605563 13.462507559223722
