49
Energy = -232.83890829 eV
Si 8.384150061743947 14.365692591937595 12.78675065095744
Si 12.293113832482815 7.609134896521272 13.487647114681792
Si 10.112404443899342 11.025105221845033 13.715277599738574
Si 9.869122592762448 9.319706799642832 15.538636942615476
Si 11.192513401650482 15.849595783659792 13.18717732547956
Si 10.729550182183589 9.866198482241623 10.064897652931437
Si 10.606511703723704 8.027424563242617 11.764309887697822
Si 8.256051370348898 7.711043319421343 11.829640459306598
Si 7.522160607469525 11.22501042383063 14.163105531179164
Si 8.438308461200592 9.155633646071644 13.65461350571624
Si 8.329844465427222 9.752130477914937 10.547940835371989
Si 9.191308513327115 12.187792432380885 11.767989968486487
Si 11.282562398556038 13.831162947385712 11.442216861366145
Si 6.7807914349473934 12.705966813885075 12.496357972629102
Si 7.339858512371153 11.902285887504283 10.253787645149965
Si 11.243067547874697 8.960759396081926 7.864345188342815
Si 9.030404227209385 10.00693782507397 8.233983821812261
Si 9.325578685989644 14.679332296506672 8.548766036394841
Si 10.721869784241239 17.322478416498875 11.38095959160579
Si 9.407851429443909 15.32911875205525 10.870879530667967
Si 11.666095721334896 14.614756568929149 8.91876892013904
Si 9.692995289206237 12.30223960647208 8.602421485778073
Si 11.750968783138996 11.964862501290916 9.982541074817368
Si 13.023756885347554 10.602036501399676 8.071342923813221
Si 10.395171051980723 13.130101989272047 15.04356248690242
Si 8.990459971771607 11.50505589622097 16.001541679970096
Si 9.421079759942165 15.2280055218459 14.677373846591736
Si 12.542143441645978 15.93968113992467 10.605814721611907
Si 16.135050503845424 12.237652605169567 9.01830649163157
Si 15.041815908250479 13.963172930528835 10.263417562004957
Si 13.041774040497865 13.283889428909795 12.981682725747822
Si 15.195295479295625 14.534283094256049 12.919991701158434
Si 16.92675251325945 12.84678755447843 11.398899698530746
Si 12.703021049938986 13.319746599324992 15.447073009202912
Si 13.308525554621214 15.35767346650261 14.22650239092285
Si 15.75857793838906 10.909515209668259 12.155935950975886
Si 14.861570438767247 16.12933673509479 11.038477260441312
Si 13.411206525076743 11.227546480049206 14.500146052139922
Si 14.868683305547398 10.159541606351345 9.517536048598354
Si 13.961874021180572 11.98177202414543 10.94973379800316
Si 15.621169134937418 10.390695885241742 14.473362437783189
Si 13.620476489578556 8.717281282884624 10.976383743342764
Si 17.25632673637826 10.469714510219186 10.27789556697784
Si 12.15785737449364 10.068273564604494 12.633086921647715
Si 14.762382331638118 8.636045674229296 13.256942040051113
Si 11.86296929504995 7.5795035254098995 9.800081250775452
Si 14.22050099896879 6.676764721344745 12.248184271889622
Si 11.934370537943346 12.623435734981742 7.5958324991557316
Si 12.236402684465649 9.19441447532863 15.2441753172642
