40
Energy = -190.45875947 eV
Si 11.18410937823636 9.40070705868438 8.761283305117445
Si 16.227895595830265 15.04912821789507 9.183168568373283
Si 14.334718681677034 13.635362226893529 9.765714605501184
Si 12.400586774254135 14.9805227307749 10.026615111423931
Si 10.393801583938854 13.677540658828468 9.79139946238889
Si 10.68199079285934 16.489100074606032 9.352385313877692
Si 11.202400243295427 11.42873316730971 10.138854676578381
Si 8.587687103074307 15.09084918576052 9.612393909870764
Si 14.53047576553779 16.22224261229835 10.4528207447509
Si 13.501239050995276 9.542877984487552 9.546355702176399
Si 11.797324328773433 8.260062816966363 10.826219233103444
Si 13.54135811859531 11.617432819608585 10.62957393281146
Si 15.947168719966712 14.409540954800175 11.443710053782233
Si 14.297095347363072 7.877637426657883 10.9227000702423
Si 12.726788603942275 6.0591765557825505 11.05203510537612
Si 11.6333350855137 16.807439972691533 11.561063284281813
Si 9.884328232399556 11.200908233905809 12.1370642171748
Si 11.516894146737757 14.431633434644295 12.29650333960546
Si 9.039560825703937 14.352400692703641 11.863335052889914
Si 13.82275576670367 17.922060965359567 11.973860328954322
Si 13.980515638060883 11.248959315889422 12.923330260442428
Si 14.742722520363214 15.966366206296625 13.020406540253648
Si 9.915404945326763 16.186721001390016 13.12504840281645
Si 12.547130576506882 7.228426084004373 13.132335572613982
Si 10.731754266582113 9.071051982913197 12.887538692824421
Si 14.379608326753461 8.797226014259115 13.170265170921638
Si 16.70630937896157 14.602270122673163 13.660278264210701
Si 7.975865645906551 12.423434603445989 12.889742531579612
Si 13.283262540040607 14.456599234372742 14.031250855825135
Si 15.073155280088944 12.84787941838831 14.249207067305296
Si 11.77683558679819 11.268895575347148 13.71662568013059
Si 10.6043171040295 7.377899456057333 14.569113095290062
Si 10.849655817899242 14.704436209615297 14.763753368095633
Si 9.7990488542713 12.60929933918035 14.404892719323069
Si 14.18662105031477 9.899245240314567 15.186206682016277
Si 11.8373808472721 9.305803335548184 15.243835784670507
Si 15.078354550701508 11.716740004279334 16.436515588939614
Si 12.60796240528984 15.053852520770686 16.25111173732675
Si 12.944744571983176 12.695661770494137 16.19503250586225
Si 10.985524138991973 11.341562965642083 16.064141652812182
