43
Energy = -205.57328366 eV
Si 10.038668655395936 11.045340647235628 7.3678378693652595
Si 11.293208850127591 8.995586678547188 7.443218500118628
Si 11.614845461228432 12.786633931292247 8.069374344930266
Si 13.850017214607384 12.913263741763936 7.264679000422712
Si 8.065144358913624 10.800503667538722 8.819366243331421
Si 10.203998534603937 7.332783080020875 8.75254233366344
Si 15.216215967750273 14.918114549984304 7.603667926915446
Si 15.341393643254355 11.252388411824574 8.248694388048335
Si 6.985730776898058 12.439887972831329 10.193740013424833
Si 10.335737984049775 9.867676084518795 9.63356153056002
Si 10.878274330537424 14.948731764355319 8.58236847592497
Si 6.369661582156321 9.047175902360504 8.814956402745386
Si 10.848722041422212 14.10526517877329 10.84134014716352
Si 12.554211573681958 8.537252128693332 9.469058234205605
Si 8.347763802775537 8.294747100283884 9.848238253057936
Si 13.261927209288785 15.078285909512568 8.910867918000491
Si 11.924840057871654 6.342094687282831 10.11399317458488
Si 10.456429413122997 11.76185459569714 11.065881179358778
Si 15.584610294961418 13.286335639700544 9.372613703809122
Si 14.418441651542786 9.851695041974272 10.004510727667471
Si 13.31738039937926 12.020573850873095 9.731287193686965
Si 6.514032687251676 10.27311343732895 10.867405813760142
Si 11.31079464200073 8.153670210244513 11.539536502289508
Si 15.414536811334296 12.916509466488943 11.753473316150314
Si 14.445505407165971 10.74506970722341 12.210601336396817
Si 9.031253918803952 8.248279230459664 12.12009255462524
Si 13.26720234459978 14.124809962843823 11.076031016623773
Si 12.171361133309208 11.326953096595897 12.66614560883546
Si 8.377310129001058 13.0240086922409 12.031618397388295
Si 9.519168628515752 15.024783099719235 12.610909338563728
Si 14.544226675398248 14.68821838185164 13.021229368177368
Si 12.248562692879432 9.026780980439582 13.522932537588346
Si 7.083816091741473 9.713108201929604 13.149816656401601
Si 9.343797386619922 10.668226106866806 12.867129890397667
Si 14.493691717553306 9.419029556513225 14.306580124751289
Si 8.189002785647883 7.8355390657147 14.294525806234716
Si 10.75074783181279 13.411521538281796 13.79636507816365
Si 10.211170819627243 9.24191907299817 14.796416708615062
Si 7.509797236972763 11.890389461901188 13.975129658161455
Si 13.027722149148845 13.13416089727866 14.096560560297943
Si 12.803854032448827 11.00327866536778 15.132954888198519
Si 9.654653307049768 11.741514312322797 15.095803979009826
Si 10.935510089197667 10.517868611974949 16.671885620034423
