45
Energy = -213.87400578 eV
Si 8.80898328890235 13.914095597070315 6.408905150358454
Si 7.14809531302062 13.063155116960493 8.029565810686567
Si 10.670360233563338 10.032271926793037 7.184908552990201
Si 9.36922463050777 11.93502634357831 7.708728283512374
Si 8.386773628603096 15.168788734246192 8.590611923338564
Si 12.88449083904133 13.702895164709506 7.599220386389973
Si 10.556090024771695 14.033849978218313 8.100129880128785
Si 12.338833819324252 11.440580967979397 8.303188705146692
Si 8.882849558968074 13.061650801953954 9.764526877414532
Si 10.723862023546964 9.467801786758372 9.461859565160536
Si 13.866511676029694 10.134596021388282 9.625985166564963
Si 16.098373406920807 9.842251380743562 10.460530390138343
Si 13.42353832434248 14.38285420918974 9.8272974498263
Si 12.500716818511771 16.395320638604847 10.631074475073676
Si 12.635822835349975 8.214128672751244 9.860939812299927
Si 11.786461827663762 12.322872915028382 10.455265302430114
Si 11.026406097625662 14.613897881843593 10.85037741474596
Si 15.025324991736147 13.859335801970822 11.438816018125282
Si 15.932225201298868 11.78547536680276 11.909246014594741
Si 13.125168159826105 7.3382755642660795 12.026225282586784
Si 14.634145568175795 9.152039821633299 12.248353139147646
Si 9.662113336913762 9.128828848310363 11.495211261213363
Si 9.096621286631926 15.250001603009144 12.236567160922343
Si 14.316174785889356 15.014907167166017 13.416109231129322
Si 12.033324458532856 15.534424322800897 12.91334572234235
Si 13.517368217118058 11.678707300084737 11.976196599558396
Si 12.20712862181166 9.545860760760576 13.05213458924779
Si 8.766012279892417 12.875275147582563 12.156774543223829
Si 8.296402192359846 10.577784820364451 12.800246778560718
Si 10.871479320867147 7.473654880089419 12.949589172332084
Si 10.633235294882475 11.27407663226506 12.342834981997376
Si 16.086566316452185 11.798497108433244 14.301844234045577
Si 15.067435206248984 9.498488025410166 14.596034324268286
Si 12.525218207508274 13.135695107069692 13.540073856178928
Si 10.163936356433389 16.19958357094976 14.23169485743589
Si 14.533006154627948 13.396231266372554 15.133908185163147
Si 10.165615814233771 13.840559640999135 14.193946876407237
Si 16.946558984445147 10.234063385888291 15.897057724026634
Si 9.843080178131153 10.643888410331495 14.61588012883131
Si 10.946473275550018 8.596931752782092 15.157302016542141
Si 12.841735110414914 10.053774606358923 15.378399021407203
Si 12.080951664082841 12.282537519399796 15.8245800346868
Si 14.783728556225375 11.139535253122519 16.543337841479303
Si 9.652175613764957 12.486745440080977 16.076306806559167
Si 13.804297967707118 13.14368020633391 17.34976592023583
