48
Energy = -230.1206793 eV
Si 10.795063934883732 9.997705828923111 7.216442064019381
Si 12.834268951762638 11.122823924264708 7.701431388348393
Si 6.9957165877991345 11.736914265134441 7.511873631967995
Si 11.702862963751707 15.172290444102313 8.174264070583195
Si 13.256105057566243 13.38422476900224 8.008649982311415
Si 9.380492431497434 11.673007137182225 8.159937938910042
Si 11.001074936810038 9.882188577580958 9.593145969769651
Si 8.03850878115671 13.899425912269852 7.917261463328359
Si 7.686008999014858 11.152452200965959 9.827610784854883
Si 14.641561939816402 10.037093340359176 8.71892300852954
Si 10.283610308385535 13.603453182240951 9.250068742915218
Si 12.769865275121631 8.646517131523444 10.573389647433169
Si 15.123110821414588 13.649311232806022 9.356177968088888
Si 14.758735663411583 7.809144458981915 9.660757301040432
Si 16.029398108749188 11.578683528325508 9.775758407385524
Si 9.497874449624964 8.72939777850925 11.03049765122469
Si 6.129783451767227 13.011644264785218 9.437722901748904
Si 11.211519851131897 7.376421307450403 11.893246727163802
Si 13.49588099850712 11.815662345903316 10.069333027227604
Si 7.22972071528729 9.244775838687971 11.269285805175938
Si 12.936045768015191 15.42628246881465 10.191519116816679
Si 15.263661544776557 15.730017710673478 10.481328664645506
Si 11.125097265308101 12.006230948553453 10.861925608428722
Si 8.185040841430444 13.57083095726394 10.52675245267683
Si 14.814829569931494 12.33997648283083 12.988829176697466
Si 14.399122150899323 14.602871191830554 12.378752342011989
Si 9.237229635939748 12.31804230342256 12.30787062555218
Si 11.021577648148412 9.74254823634228 12.87331982786332
Si 9.308408259053476 15.015071537701338 12.101255012937314
Si 15.114438769386677 8.97588713505478 11.77743223370629
Si 12.008551711114004 13.331086862571777 12.948005878538268
Si 11.672939957667728 15.623054688416445 12.16094549548953
Si 8.554672411877412 10.192358926120427 13.050657278789181
Si 13.316617993487066 10.557884809286785 12.284774240262875
Si 16.524957927989014 10.89930702857343 12.006524116998545
Si 9.836040646362116 13.787964724981595 14.049994371476517
Si 13.111042979056121 15.60553817806014 14.117196082863575
Si 11.900323529276848 7.787117758899099 14.132414245454548
Si 14.145363392220055 8.643666450059728 13.934291359189787
Si 11.714084679738708 11.380388431167649 14.778266691871877
Si 8.29680434814214 9.942950890687523 15.458424286057575
Si 13.066923098810934 13.401662875160813 15.271911714070335
Si 9.530336966489614 12.037137235959868 15.61448782830654
Si 10.619041410705782 9.242722095811056 15.487037373196173
Si 15.267694919695572 12.512073424404546 15.328702926651632
Si 13.953899771235477 10.53078815082268 15.306407424405878
Si 11.448456233758185 12.534202500215091 16.96037677149931
Si 12.24981977134619 10.223385956638305 16.95900580083785
