47
Energy = -222.31581103 eV
Si 8.12762487043611 13.531686138120918 7.677025095331817
Si 8.02536390564235 9.900111272743493 13.579783231864251
Si 12.126827393776718 6.470115219904357 10.6132054801995
Si 11.740821697800389 9.563556547542616 9.029767504716276
Si 12.809290733027087 9.827526714261351 12.7881258325987
Si 10.259175304596893 14.803926832023842 8.416048481390037
Si 8.813576402787833 13.198257387150502 10.014860254929765
Si 8.962511788250326 12.535169227889973 5.464278393703364
Si 11.915661774142349 13.099281860490338 7.869545544160119
Si 10.02064329350082 8.009871319790864 9.96431476248384
Si 14.219951112741962 9.516551899196694 8.875362483459321
Si 12.730462454001126 12.092975148761461 11.717221535882057
Si 13.213955881783846 11.694726555612919 9.351677430916471
Si 9.198956693288267 4.839012776615081 10.213138014088688
Si 5.721334286995396 5.372642161994336 7.524114010673873
Si 10.92428334277551 7.925771823324007 12.237802988624258
Si 7.15439457527506 11.041021160799103 10.430515307283772
Si 9.755288554348331 6.543774456398532 13.751338987638803
Si 7.1086169560878 8.933761963989744 11.563168707185474
Si 7.921703961299753 10.348519465878944 5.753906568728105
Si 8.156047497290752 5.882356020676108 7.9558264403369465
Si 10.813356116626748 5.08270841131777 12.069100290530697
Si 10.107159082375034 4.582196939637556 7.984967321167469
Si 9.134266464493638 14.154527424998347 12.452053253491766
Si 12.974216754912675 8.032357005044872 7.237242037522411
Si 9.830507311472978 11.835525303276755 7.7921958154655036
Si 6.885343873685872 11.300561536907844 8.100904116009128
Si 5.148228259688187 7.615499564480185 8.416201399439032
Si 13.200460606475684 8.607496238985535 10.830334991118747
Si 10.519047091312096 12.208879020967485 12.750941970013672
Si 9.341886039518915 8.433222443912783 6.1047726423111905
Si 10.8010893376203 11.632292507917821 10.10056358492046
Si 11.329148745261808 9.637710789791472 6.652147383710749
Si 8.7508523603062 9.706861068436769 8.050753316887633
Si 7.779210442697536 12.103092963335884 12.419772718981253
Si 10.936925681871918 14.119320972226484 10.668625409298116
Si 8.63513670069128 6.706786784339706 11.657555258094987
Si 5.751979635084809 7.169099775228209 10.692372569980096
Si 5.35691737270648 9.646691365079576 7.176882956294605
Si 6.849318936341695 7.413081707504649 6.577798011149672
Si 9.340120163154578 10.201109800894528 11.438113170023186
Si 7.627177686823867 7.903049722317324 9.140616172039882
Si 11.327789966882818 11.888135583247731 5.8674677188151305
Si 10.529163197303305 10.000343655410115 13.75479950175514
Si 11.298488784046999 6.646373469008791 8.403570878441563
Si 6.741400037897155 5.12370947742653 9.837157218718225
Si 6.023156376900279 9.057590021140761 4.9709027436256275
