41
Energy = -195.23586787 eV
Si 10.66019959035764 11.711611950415378 6.4622186649775495
Si 12.443475546634964 10.200388928555041 7.15807778143083
Si 14.689885527494054 10.832632827554432 7.681047577141519
Si 11.726172671986053 8.004905823045355 7.5764577006245855
Si 9.444227441072854 8.278306329392574 8.301808700026756
Si 11.302383398878572 12.932109278242757 8.434053315513115
Si 9.22545078804913 10.685287456829627 8.070209940079085
Si 13.540498549276979 14.254404145286975 9.99802012124678
Si 13.378386147562836 7.31049711645261 9.18321223803197
Si 9.741557807732525 15.018713686425803 10.971922788928698
Si 13.352215806386742 11.889348721807018 9.344439060971137
Si 11.199212879228094 9.880407545289867 9.242316703074255
Si 7.58027230116744 11.3362761253363 9.719317783048838
Si 14.613239189923407 9.295674353890933 9.465204240123597
Si 9.75882361396818 8.27413840782022 10.657122537151182
Si 8.009097931788096 13.643701822012439 10.240428012092615
Si 12.254117885566405 8.5424204866459 10.936967986854901
Si 10.082254014249862 12.111968056162638 10.312482106967026
Si 14.107622481493895 13.795921829841692 12.270530709420086
Si 13.093581156072906 6.2566323462966835 11.38594762050919
Si 8.943895624486139 10.336692476902195 11.567235147717485
Si 11.517166730842778 15.22060008987821 9.276342214635251
Si 11.683504968314699 13.635544018615052 11.417697982461405
Si 15.811537374156817 9.571323842150768 11.493173042779645
Si 14.240123373402012 11.395935838039204 11.65801056020024
Si 12.215364301062998 10.361781793933286 12.603620135592472
Si 10.699044853644288 6.808777366206152 12.207515112946824
Si 14.092936501416334 8.187938314665532 12.498568562851608
Si 9.723686522800532 12.073505548040094 13.127684251663098
Si 9.086985378900607 15.842940950767952 13.113568413160559
Si 10.728887759728245 8.790466318242144 13.606633652776612
Si 12.202930356896708 14.370786169055384 13.635211203988394
Si 7.961757802848874 13.58050228765806 12.605255426530904
Si 12.973507298058236 8.852975621350703 14.492781575686132
Si 13.882116629546926 11.042944673698795 14.27308555112571
Si 7.050661984133672 15.027335629878609 14.196935952926244
Si 11.79845751244948 12.186438577192389 14.396836001416853
Si 10.72184167131142 15.80658657601666 14.858251448910828
Si 8.62742578892368 9.961596581345313 14.06202084019231
Si 9.731697117233887 11.694242183281093 15.539996377186764
Si 9.123122112611739 14.01506429743903 14.977117348696359
