41
Energy = -196.19158779 eV
Si 8.438830821059973 11.780147067031447 6.366161736473088
Si 12.125660959251547 14.503741325635923 6.231796156737731
Si 10.710401712827444 12.636058230963418 6.793196907502338
Si 12.02824461025064 9.00756167948277 7.14528419356876
Si 8.669750248546427 13.534914986000613 7.965721255479424
Si 8.06440523661945 9.936657174082303 8.063013144131824
Si 10.535353690001227 14.92211189175384 7.9859443498420735
Si 11.596147272219126 11.039587096283325 8.303880969030496
Si 10.038841505250314 8.65268873715196 8.387540669618861
Si 12.642035095909543 13.609728219114782 8.422830098814375
Si 10.172358822096763 6.809249529233555 9.88223452289315
Si 13.1803124761845 8.692126962977628 9.248944937555242
Si 15.175555617390007 10.03456948323567 9.404654690059958
Si 13.436243675063437 11.672588969208231 9.636900661813945
Si 8.407766495407305 13.133952791660159 10.21496891611483
Si 7.370012832269765 10.244948021512926 10.37810188837198
Si 9.627911690326684 10.946929815611174 9.627510656227592
Si 12.544501624946756 6.67250343711913 10.391255752517367
Si 11.759836551701591 15.317316035146705 10.094456274920832
Si 11.27530163295469 8.91171988111947 10.75974388722648
Si 14.837624823867346 10.00618687709621 11.73361890930263
Si 9.699656517633764 14.74636374177417 11.381591376906236
Si 6.44898495191755 12.32044264829593 11.201410454932434
Si 9.298120602571267 10.036809219221384 12.101042107552708
Si 9.364178613948678 7.495665035434771 11.989191190519998
Si 12.437819387324494 13.157535484424654 11.19914627296556
Si 7.231352024844629 8.546625532368163 12.084962799807917
Si 12.604774683040704 9.867838257148486 12.780348353415167
Si 10.248099166300372 12.37141374244882 11.861951848773474
Si 12.297887634249346 7.40314905077758 12.663704513236446
Si 13.540940503192662 13.901220107135845 13.218049241424454
Si 7.993462323630041 12.051699327760653 12.998618131966634
Si 14.415207846609105 8.305057990922634 13.361025572878686
Si 14.313668916136976 11.641137337991593 13.311921282093781
Si 9.464376770305275 13.892245975685775 13.65792074472045
Si 9.889653937898776 9.166467185905663 14.333105222148278
Si 10.395661015675271 6.847504176941298 14.02209728914186
Si 7.632773950741596 9.96057559704014 14.124184075507127
Si 13.994646718357215 10.01901428233239 15.043305729666347
Si 11.659232716750443 10.574236590338504 14.846893218561814
Si 11.568350569764805 12.765656749668274 13.917716240615787
