44
Energy = -209.58529647 eV
Si 12.898336866765401 7.212934546884244 13.145585782592802
Si 12.34401763666098 9.474081171797248 12.784282551549214
Si 11.115729901057076 10.935086905673982 14.232241862241171
Si 9.50076533280233 9.272562591165311 14.659268252545193
Si 10.54888994262072 7.553496600173105 13.367364665656803
Si 7.683090458240181 12.397764249534063 12.753893693896671
Si 7.737605855660509 10.023707981540099 13.300507173737069
Si 12.254697670796885 13.220427878262957 11.636173472262515
Si 6.5696177178669215 8.349353541274557 12.191821001291332
Si 12.262733009033113 6.951375017310516 10.845519179475993
Si 10.156374439636968 12.19242315727573 12.443481164230473
Si 13.046431200118755 10.991738899935406 11.13391157605916
Si 4.709040005644748 11.649526085920842 10.084972665426712
Si 9.268866997691012 6.0393454854485356 12.156001362758957
Si 5.43707875559719 9.443638854013482 10.434173767260752
Si 10.024237235974121 9.80978593481775 12.22638864441447
Si 7.747589942152913 13.532802417723216 9.060052623279528
Si 10.00171155614345 7.413409432066903 10.265979468371215
Si 6.8476498343184655 5.922587874234122 12.104641584914608
Si 6.689682281444161 13.53459567179679 6.731501142262919
Si 10.852808070409969 4.9551915637369355 10.607875055954485
Si 7.094924186799009 11.564903033640876 10.559193861546166
Si 8.026316417295432 9.292391853431663 10.365734844823805
Si 7.6050666693456614 6.616455149005745 9.991285330890088
Si 9.180421994825293 13.89047486290359 6.91900061889582
Si 6.229495490083487 8.020304114788551 8.729697203775988
Si 13.267237609696565 8.067092134682458 8.98844413718764
Si 6.184111354532941 11.673180429917037 8.162703012938522
Si 12.03051331646666 10.073685065252963 9.024807941934238
Si 14.548908678620473 10.105677209696198 9.44703583295644
Si 9.332891249442838 5.492616461948416 8.800725283062206
Si 9.651294208057253 12.138505292610596 8.649545754310042
Si 11.830917223404901 12.508130789128078 9.426198316852764
Si 9.681818925000355 9.676238845990722 8.152481817694538
Si 10.428719675397252 7.185689983705217 7.595252565460179
Si 8.26985633708104 12.440826978572916 4.9788666798170995
Si 7.321694201500957 9.709483062830486 7.589240203231497
Si 13.55749224471066 11.713126766840015 7.92326538464707
Si 12.706284839310307 7.053936492579064 6.957426348183866
Si 10.071730873560016 11.599887294923763 6.312057876783366
Si 12.180971261874802 10.54665712209476 6.4116199632697715
Si 8.286464576141988 10.03034811123461 5.466525414138019
Si 10.173180729867045 8.566864735077585 5.724199432326487
Si 12.458771246143858 8.673353770391687 5.100396023832873
