40
Energy = -189.65910828 eV
Si 12.412192004924222 7.684347975291167 6.341188221824475
Si 12.812483736862262 11.965121115904783 6.680050460240109
Si 11.703005937377029 9.879903334849764 7.102948186404192
Si 8.583484566455661 8.058466474515685 8.845784691224633
Si 10.710423243217159 7.7473510247877435 7.953127681377724
Si 13.634051053356666 10.733226441779687 8.521811254831098
Si 9.843214560575886 10.122497398080732 8.6922361543349
Si 13.312184776498242 8.358639111095888 8.498439629778234
Si 11.718464122442196 13.052280161540333 8.576926629498665
Si 9.375600322150031 12.44669662260707 8.663569067585627
Si 7.4620934282864955 14.101378008403225 8.748177820169873
Si 10.335157825056553 17.36281242509608 9.946904167678143
Si 11.31020298423241 15.042559065199953 9.80127987622331
Si 12.201021588174228 8.023365659773972 10.56319856541881
Si 12.823484608261662 11.935355484537096 10.354350577549189
Si 9.889161087839568 8.054526209689225 10.854090951253747
Si 8.96684934137627 15.387460620909474 9.958687940941088
Si 11.171170962869272 10.305262711362557 10.67284247431203
Si 8.653409187589455 12.195753512725835 10.887091582171134
Si 12.097110565662208 16.763198989035157 11.499678427396494
Si 7.132066580368016 13.94345004647945 11.214081224157294
Si 9.713022989398011 16.405524278000744 12.293892912548154
Si 9.024026348092844 8.388804102070036 13.076815419868783
Si 11.475579771390079 14.521945484885467 12.161080598097481
Si 14.874545596529986 9.848381571691489 12.830370161817187
Si 13.705271912184255 11.913788701117179 12.545720914538444
Si 13.108157268948402 8.244088687783925 12.712556429928428
Si 9.444906503338808 10.635796701216906 12.465822491637399
Si 9.232309950894022 13.90687510833105 12.50598858845045
Si 14.989812317207079 13.354264706308546 13.935342249303824
Si 12.684031805345622 13.680581776170142 14.048150671011685
Si 11.560961748601741 11.28724481315203 13.558399759632378
Si 16.253694343247115 9.480357944717923 14.799845338620338
Si 14.632691342512045 11.206739312964256 15.068162833597437
Si 11.224685364880386 8.827398267510059 14.013949779952974
Si 14.12345253041283 8.363873674850327 14.843411354490224
Si 9.153409688299147 12.268283412228639 14.292149032475637
Si 11.160873732754638 12.65302403073146 15.591015101847576
Si 12.436160411159324 10.602535225811307 15.747852617481273
Si 12.117971376856136 8.309237292421578 16.195405645958154
