47
Energy = -225.25786479 eV
Si 11.318449592886083 11.496089698167689 6.608663062468776
Si 13.402482010333118 11.36686580888453 7.827640935891131
Si 15.433291203804565 12.682367192168593 7.839036925176246
Si 10.498936492422422 9.943068103154047 8.255048347193666
Si 12.000600128300956 14.803358783945228 9.029934646398349
Si 10.912922379855974 12.736051736429394 8.628575565725535
Si 13.799289401305826 9.473664936937412 9.145409845664139
Si 11.731025944148163 8.514659256663101 9.523907503215682
Si 14.307846598185836 14.34091733042459 9.08637668170831
Si 7.306796331278306 13.970346696902562 11.09513118670894
Si 12.111200188834946 11.090560045779934 10.036984650578404
Si 15.593301667267468 9.745305386846299 10.636436773019746
Si 15.58438776003124 12.033254714317698 10.11579043248074
Si 8.70076813377475 12.782936873085207 9.56086324036055
Si 8.626942384925384 10.482411986433851 9.56812610687193
Si 11.01392829198137 16.314290440897974 10.5853777482046
Si 10.724199037155792 6.972431387470168 11.024612232375443
Si 11.139698091751177 14.079741406961366 11.275865820747416
Si 16.80606144495803 15.430559056806958 12.462506576012466
Si 6.553885770297169 9.800321364108 10.388698150941588
Si 6.353922469843977 11.774812401970985 11.543493685717188
Si 8.725945007613932 7.9078083028563935 12.024657466403411
Si 13.409182606938577 13.24649590478067 11.147870827578437
Si 6.28367160024808 7.913760271668202 11.767081365850185
Si 14.90633396299543 15.467834377774066 11.03110942334103
Si 16.47297667752675 13.142725701725935 12.003531496576073
Si 11.687648066608284 10.310070638298852 12.233896501013296
Si 9.354749818342917 10.550568547244106 11.869075643359812
Si 12.831051941077439 15.824335364843714 12.047560040930215
Si 9.213813632974109 12.934979330299125 12.159987675817122
Si 14.323223210021645 12.454383419026048 13.250335816879895
Si 14.793074492572263 10.135232152049335 12.803441841673042
Si 11.311478656890245 7.871172731368142 13.109609956001837
Si 6.565481281098692 9.96253880134612 12.974361433755247
Si 9.326906284165945 7.402127834297154 14.291112016076735
Si 15.031387025167511 14.82379307686228 13.96463844764374
Si 8.685642960094766 9.673656386041646 14.042018595311689
Si 16.562063826883215 11.473854630027084 13.72826794152099
Si 13.098547188013866 16.129917159902355 14.373420667050794
Si 13.000809496661848 9.166835633366874 13.990281455843496
Si 11.46729685961611 11.935453007682845 13.896651956789748
Si 15.480834322988608 12.939756073759364 15.384932786944328
Si 9.560683924291965 13.467557061532919 14.599893677204552
Si 11.851793096323792 14.179948205536146 14.835927321505324
Si 9.731938354701686 11.231218643884821 15.510729887119519
Si 12.008649306131138 10.380535165420037 15.861946396614458
Si 13.17104242739652 12.415588320737063 15.635340594421075
