49
Energy = -235.50338399 eV
Si 11.82702822870986 11.154430047366311 6.875066454130167
Si 10.03653470936508 11.851557912694906 8.203002581291152
Si 7.568441764121954 11.633304602092478 8.365008633779057
Si 13.085318175109004 12.611189644301941 8.275599871228264
Si 12.418990156307741 9.516720843864281 8.501307646165772
Si 9.70850291233091 13.91558140291825 9.269249562017048
Si 7.76703459216757 13.084436215728813 10.232051966219506
Si 14.795129287202549 9.423197981678253 8.90307395583275
Si 11.231203154184762 7.3795525652165574 8.950045199167052
Si 12.790913090198883 14.817344538385845 8.976348268287497
Si 14.856529396109158 11.736404034478864 9.631085708420283
Si 10.737187399550951 16.057557472457272 9.308334716267472
Si 7.049784017841051 9.472828855411706 9.400871771422466
Si 9.147119122264883 10.735587647262038 10.156087834487893
Si 9.348317647099485 8.342365329578527 10.093001371961044
Si 12.698397245446134 13.099536534434467 10.749320418128198
Si 14.748490481851123 14.908580376053871 10.287147083555702
Si 16.574280732604283 13.370059528568918 10.029575137934863
Si 11.805428834862031 9.655040148340834 10.797870238340806
Si 10.462325599448212 12.441635431836552 11.216378009671253
Si 7.137566078143315 13.25170299355363 12.515420222317422
Si 13.763321051132891 10.972888570758755 11.748285169629348
Si 12.287897996723794 7.266501756311153 11.165801804875333
Si 14.210538432326727 8.61183585236423 11.077327613291837
Si 7.09434359304244 7.339638177350224 10.358690447664772
Si 16.434476355820305 13.189948343308274 12.483408392053395
Si 8.39686175098609 8.37388233793666 12.277337711466936
Si 11.061219027829713 15.116501132064453 11.487643809473028
Si 14.220589588598287 14.073940614436719 12.53888918027547
Si 14.750283313508112 16.44811074605787 12.147980809472559
Si 6.224815739656145 9.353268666679083 11.724950235662693
Si 7.990834499870994 10.965200954569644 12.320227489076634
Si 15.144272024041129 9.076276620218616 13.233051170154903
Si 9.499724270453646 13.87159651948249 12.83188042639046
Si 11.527967370941651 10.490196796190746 13.057465632483595
Si 15.312523168929982 11.435479631870447 13.537564565576483
Si 12.599788219934707 15.903879943754037 13.10617880911973
Si 16.09135715223905 15.220241702537638 13.848647529137759
Si 12.735026188405214 12.477264531854901 13.750236007365793
Si 11.325555967556399 7.95640893555967 13.223118261667693
Si 9.263376704974748 7.85312678301241 14.398133989332065
Si 9.453110705633325 10.303004746919992 14.155677336773655
Si 13.069212723230368 8.910990818916268 14.386920148494115
Si 14.074574125348537 14.432266508827832 15.01757821292624
Si 10.893682384065917 13.62943838461926 14.747730462015255
Si 14.337086742282075 12.122685741560007 15.63632724246155
Si 12.322608816192105 10.830053117503871 15.563260064583487
Si 12.066789253034578 15.66208310671227 15.421803135265932
Si 10.115532535548239 11.716567179623613 16.079930019909558
