41
Energy = -194.75823103 eV
Si 15.028685312834435 8.752869080443165 8.009768989153361
Si 12.818241335262599 7.805202862479921 7.648880367773199
Si 11.097884672097287 9.425431965657388 7.798757515254795
Si 12.33225790270595 11.383340563542118 8.171031231452215
Si 11.293767252941535 13.364007560389755 8.90389222496298
Si 14.380171317411953 10.784925869966148 9.159576860195576
Si 9.092099259936084 8.61388048972188 8.753796516500474
Si 12.471422099516122 5.943032593407993 9.141682471293795
Si 9.077529437308499 12.804590829933067 9.651632187078736
Si 14.096238147598598 7.539885681280514 9.786124518957811
Si 11.173623492067525 7.870679882389058 9.80991076317476
Si 9.31701106004659 10.491184495973922 10.25866343266686
Si 11.783383049235846 10.117857883959438 10.328607096597478
Si 12.02651741621476 15.04405664834725 10.302080444062488
Si 12.511888555009058 12.558591040010983 10.956059249553352
Si 14.953293228666176 12.399443818957357 10.88623688700862
Si 8.211487333028034 14.472448999880543 11.272701093782302
Si 10.188914902630698 16.14118803417978 11.405214813096016
Si 14.102904365975057 9.41527150859738 11.242419537128534
Si 13.83036605040138 16.375486525417095 11.202312846345421
Si 10.246710878639057 12.568695125179996 11.768258716695481
Si 15.666906303751423 14.638270966397247 11.756650865128321
Si 12.711392016777252 9.727910032153815 13.15675918742838
Si 12.095005260405268 16.345366742528935 12.954618917064419
Si 13.342283060109501 14.233494762121794 12.399141079148748
Si 16.03569577167417 10.599417827794818 12.104870636892626
Si 8.670707290128437 10.799226906934992 12.52560815971261
Si 9.997094897308006 14.389088163915545 13.143803706697756
Si 7.763851283720253 12.94596169929964 13.264743130487215
Si 10.889903980177523 11.061751265058236 13.652502378735159
Si 14.463836047324701 11.451968528086969 13.634789044805729
Si 15.175313792832778 13.720804476669509 14.039255688747586
Si 9.064535843006455 9.829556151334042 14.728928493694529
Si 11.517047328179924 8.845037123402705 15.007412272309951
Si 13.031928889192159 14.562832926458476 14.745174571044883
Si 12.222698941510078 16.717348564926713 15.330490752944817
Si 9.106582955990119 12.206205885462543 15.166523399911936
Si 10.530705468150511 14.98828118483263 15.374406539663278
Si 11.738824097803992 12.568713036694795 15.374647184889593
Si 13.204884678553823 10.589810387932937 15.546466557372336
Si 10.10988244000628 13.28035932440898 17.00907708671577
