48
Energy = -229.77914484 eV
Si 12.177007538926304 12.67842027181322 6.7709725958203855
Si 11.465291568390121 10.666960182389955 7.807434734584805
Si 9.341103287192126 9.709072517718294 8.13618554359815
Si 12.946782909445044 8.756565703338264 7.879352573848175
Si 13.830069478025479 12.29547982562197 8.447333284715873
Si 14.832726297305905 10.097729450503047 8.426724491020783
Si 11.458239763889088 13.791317985296326 8.740663378514913
Si 9.35677179325042 8.024988763910706 9.775715183890522
Si 12.896196239440458 15.644833782878644 9.399304260447552
Si 14.988412405102396 14.290004384136566 9.135269216121264
Si 7.225557345330005 10.608295650834844 8.803601817534027
Si 12.601166669343097 10.393564552597184 9.911698880576203
Si 9.406840017467525 10.395407389391826 10.464074930474709
Si 12.484635744624233 7.858699225014438 10.015438909567608
Si 9.500804007134834 13.886222702870867 10.05092935997214
Si 10.758708633046233 6.3356441464250155 10.62804200416623
Si 7.259682656216557 8.87520171669534 10.461689561447873
Si 13.009198371068765 13.413112665795309 10.580730088791062
Si 14.748382207128866 9.709732193925639 10.753122605893559
Si 11.967433494946413 15.681566572345382 11.629396080224568
Si 7.868083553320499 12.243715307225932 10.459311903343991
Si 15.572534070538316 13.275418767552328 11.198907010113238
Si 9.602365615861899 16.046142781314177 11.09584201036226
Si 14.234477075758432 7.469448328565612 11.62468679703778
Si 11.345120335590625 10.444926317717986 12.159010953575716
Si 6.565734821936183 12.301403218050924 12.488006599444274
Si 16.450285453444497 11.074931616285784 11.761343216334863
Si 10.45808920762418 13.794287230655486 12.237197766082463
Si 15.427436045628596 9.086279940570146 13.007007202444761
Si 7.737441476268492 10.26759998092576 12.30475333631001
Si 15.836345672937814 14.021674990406904 13.434112919962828
Si 13.677803401375801 12.81426509400343 12.854530297991962
Si 10.908528775896446 7.966035955124473 12.346496371636347
Si 8.52533436446712 13.087470651928998 13.594651539424989
Si 8.76389542254355 15.455620864049173 13.326014920379476
Si 15.52312866559703 11.694886046615604 13.956518234149277
Si 12.895052583152815 8.883536353584368 13.281351504490406
Si 12.714839153484007 16.790638336028657 13.613001035966294
Si 9.379722084924794 9.19940180737242 13.644238296300632
Si 13.795205022893326 14.793553413122723 14.2795084797284
Si 11.6093518246011 12.722402697464863 14.198834144272485
Si 10.849323267120019 15.546703482004393 14.329950521526099
Si 10.860786168761427 10.469283562398045 14.898063851914317
Si 9.453340474066259 12.282791678980862 15.649016865862157
Si 13.618018555861532 11.347150433035923 15.287904934506159
Si 12.710515660713597 9.182128353709604 15.703333595986862
Si 13.305126702829977 13.488168582394996 16.24123126189906
Si 10.976964666012883 14.057175075891857 16.127355478226242
