41
Energy = -195.09604652 eV
Si 13.142446731851205 11.083463630526797 6.844200882584432
Si 13.298282960979693 13.38234493250878 7.742337792838785
Si 11.013711120103784 9.94505229368814 7.558561983206551
Si 9.031298278705739 13.542785991095656 8.539719200092717
Si 11.259791543518341 14.52035930064333 8.40217572381735
Si 9.32256649788945 11.200501453233077 8.681748251688727
Si 14.467185039686491 10.201344678399016 8.712686981392428
Si 11.498869307316781 8.261392463228098 9.212734997313767
Si 12.293396957993947 11.601874468480023 9.057221755681658
Si 13.94391120989819 7.87753538952517 8.990112123511514
Si 14.231885433633177 13.111374020567792 9.9399551342094
Si 16.038034315812812 11.58830884765804 9.941232688406982
Si 10.65837924465792 12.817789748064126 10.330576484597449
Si 7.397571220124079 10.533057150339728 10.0121130915756
Si 12.823618444841816 9.726473417345707 10.540606527127894
Si 10.41799341876732 6.646922361029819 10.688685854032629
Si 8.628643560261892 14.178866603469826 10.939651705148297
Si 11.688472116256621 15.085956820187223 10.64259184189814
Si 6.761715025074184 12.891499657935219 9.543132875902305
Si 9.725663707366937 10.648423395541284 11.01148922892182
Si 6.376118745730245 14.060345630545134 11.62952208695207
Si 12.263564094419047 7.608546052530415 11.824567532463405
Si 9.877589948531964 15.962794714742937 11.926609341705602
Si 11.902972277922887 9.136199315326293 13.675918289130523
Si 14.909464362352798 10.512302811639795 11.736968769355205
Si 13.888290157394858 14.886573292030281 11.45087509497771
Si 7.567090118049289 12.04084679803297 11.951593441369377
Si 14.663517208296826 8.13986037720452 11.32092771450245
Si 9.791475213209198 8.557375251390855 12.083887719686569
Si 9.918140461063198 11.735862814934656 13.157573573541706
Si 12.775767317473443 13.532379267211708 13.06844068574294
Si 10.469612783659729 14.078559188719618 13.297440620175756
Si 12.536568985372122 11.195642903347661 12.603707450076453
Si 14.40606642828672 10.112512726322453 14.014463463551722
Si 7.687558195866306 11.411448936650675 14.294337134138082
Si 13.877522978770585 7.5985496684068 13.657988333392161
Si 9.186090643323217 9.521356008718328 14.178585845637127
Si 13.39139889486009 12.174634963726364 14.946916125721604
Si 9.406551492535339 12.996039595544081 15.239903491995825
Si 10.86349674293495 9.070550398803146 15.826573245441391
Si 11.166976001900192 11.3915618473972 15.350934103185983
