45
Energy = -214.6366679 eV
Si 11.270667672257723 13.43518634923001 7.604527308206812
Si 9.528923702984276 11.801484459233162 7.580208939961436
Si 13.672867840154202 13.020271231927097 7.500595414032355
Si 11.048912995976838 10.10986846348149 8.277677997723002
Si 10.583813235065401 14.750949640625306 9.35014342723505
Si 13.176247864603464 11.01034582981424 8.600626842005616
Si 10.815888768277858 12.10980725164833 9.690824803237234
Si 8.453685865225225 12.401604106450344 9.764166263615273
Si 14.280074670489121 9.19939135240166 9.621602533482463
Si 8.39307379413531 14.770732624999447 10.19588427787921
Si 14.020646558672313 13.859766519528208 9.717638045375523
Si 12.518320954647782 15.665892529137473 10.249773805216611
Si 10.436231650928226 8.65960500626585 9.998905144245054
Si 12.519021485123835 8.469219321283296 11.063515970422127
Si 7.136167494098208 10.814451033684707 10.9812197796216
Si 15.922956046986833 9.591349584621657 11.321158009172427
Si 16.0996649686894 13.937051054938308 10.908502895031951
Si 12.62721972292346 12.584367353957816 11.255296822250598
Si 15.962300237518152 11.838754727131699 12.05260096373958
Si 12.695698712233542 17.43933252099961 11.820114532425706
Si 13.675503130058901 10.531529492250268 11.712568970181177
Si 9.167336611481026 13.944556125089424 12.299554978735102
Si 14.815396691172392 14.427876509997262 12.828990646985046
Si 9.269889456985664 9.963494780543733 11.56719215843905
Si 12.476906481307593 14.772807453755165 12.459012539451848
Si 7.967805741786131 12.025266953134205 12.853933184879155
Si 13.030067209642693 7.055564349353584 12.939430693456638
Si 17.022405479437023 11.59825605747077 14.224906967860086
Si 10.709367287148885 18.28156820578796 12.64204140396847
Si 10.591466972726653 11.921006750544768 12.507307987013606
Si 14.08625269590549 16.603688953688874 13.596610475636224
Si 15.097279502538193 12.838733925275148 14.514352169335922
Si 9.265688344855144 8.62998179020574 13.551054268616522
Si 13.206664134057032 10.904251809777124 14.390765231389073
Si 10.668989467925817 14.634580233986881 13.98682644328319
Si 11.750192971266586 16.7793720903038 14.130202875527479
Si 14.694179728435135 8.699999207642794 13.203525061249355
Si 9.169310602543927 10.730487561329367 14.517142859697385
Si 15.407615048007438 9.99303075135411 14.99145416407178
Si 11.51465102029811 8.447430155451649 14.11279824247853
Si 11.240624896612323 12.51404208578262 14.925042163269104
Si 13.400961476472986 12.748239196219908 16.131926156518972
Si 11.759151135783476 9.754035567271067 16.014389298123454
Si 13.897247516832685 10.466955860063356 16.8233168272524
Si 10.037748925502063 11.348899942135082 16.60575722747603
