41
Energy = -195.12075078 eV
Si 11.228765360508664 11.611528653182255 7.687325171070696
Si 10.305732855668023 15.005820659657244 9.232037240039592
Si 12.176579845420594 13.687493016330501 8.553752000853201
Si 12.094096963996007 9.567678740233857 8.580384888329002
Si 9.526284044672062 11.35427590499848 9.25856631241444
Si 8.590275317963272 13.456794103955009 9.462645684007153
Si 14.417893227276183 14.410668439326821 8.370395301672142
Si 13.730741631188424 8.121713840904107 7.509109070250693
Si 14.293560052330946 9.032987288916475 9.51913500100581
Si 10.960807798320404 7.884498086796647 9.755182860361145
Si 12.096643009760546 11.590367881802498 10.09233699369754
Si 13.070931832744732 6.652989444676396 9.390928978215205
Si 10.06414717975882 16.91301435042623 10.705288027917032
Si 10.560248506780917 13.247215752351854 11.050853953786232
Si 15.841655564663958 10.719876861778847 10.274467445957876
Si 14.28496119104944 12.521796482974263 9.778363676184636
Si 14.041865187648881 14.958793668749793 10.700879732781075
Si 8.761709214480371 7.507926463006545 10.622193657148978
Si 8.813706202304534 9.916509379870549 10.999650826591614
Si 12.867259389693855 7.938017430608297 11.443773448356648
Si 11.787405535051263 15.468424531266033 11.493817088292765
Si 10.381908850776805 7.768481950922033 12.341686105614393
Si 12.902332129084083 10.231485298500397 12.053690825476835
Si 8.189476454030348 13.366431179787693 11.793600659504092
Si 14.15429794152084 13.340212602392782 12.431142464974076
Si 12.217378023023711 6.715248231412277 13.429378061996317
Si 15.079873482301437 11.163561446804168 12.461097991249629
Si 7.183056845648882 11.27032106353259 12.357825847064918
Si 10.586802837246925 10.192302219855259 12.684191078112852
Si 9.223833713391663 15.384005857044754 12.419762667171016
Si 11.897570585718093 12.661286235982136 13.371208062347817
Si 11.762197819866866 15.12454752501496 13.83610036781027
Si 9.014682883194798 11.560648008510888 13.84453184049981
Si 14.280782797201331 10.065159990648258 14.444820640802414
Si 13.9182319924891 14.327724055550766 14.589283260343123
Si 12.123448121777379 8.958191167966314 14.26704653083345
Si 9.96480251312371 13.497866181302086 14.8228799712657
Si 9.669457753609677 15.828565821142446 14.727517351965231
Si 13.421541077394952 12.111849540615488 15.271172784399266
Si 10.103631434062281 9.853431598785782 15.326494212626073
Si 11.247180607828705 11.848046816988571 15.883239691582732
