42
Energy = -199.37912561 eV
Si 11.915877077726917 14.521399517060734 7.323983879305065
Si 13.974144443410353 11.398923135769747 7.863851995650714
Si 11.957508501049867 12.45800500736911 8.664786470576624
Si 9.9617209454293 11.284817604657222 9.03710751339389
Si 10.633665821348119 9.03439729226009 8.837835413556554
Si 10.351151099235388 16.027898605733984 8.520233684272524
Si 7.966164144016553 12.513683687506829 9.492073130724172
Si 12.957143431283257 9.604469197169045 9.00798381351442
Si 15.164977874189107 12.134839993216213 9.88261411648313
Si 14.05354764205812 15.437842632090895 8.233503264335502
Si 12.182239448132846 14.764171034332758 9.758423295947102
Si 12.9400955406334 12.11221062652735 10.842316172695767
Si 9.244640518737134 14.49362952776619 9.871346915844297
Si 14.796275706850814 14.438315683918772 10.222408644391274
Si 13.721615381006908 17.03366538735725 9.981408658063597
Si 10.289294087586766 9.878434580847255 11.248730787525055
Si 11.42640484365574 17.08430410002964 10.37786559143441
Si 14.555396368273042 8.385295256466248 10.296478194560937
Si 9.370718165719849 7.8379059108500755 10.569555518891057
Si 8.894249099570219 11.773109411081307 11.567419695149967
Si 15.11102764767968 10.448484509082295 11.538422040314321
Si 12.704912331624026 9.690143410440335 11.452651228904104
Si 9.529070373545386 15.279812340638445 11.995641377686423
Si 14.98251752547291 16.132976076224562 11.866957829304061
Si 10.968195946767958 7.043300367719669 12.162007048769123
Si 13.316624544293337 7.318269735321821 12.13670579399612
Si 9.7884675249892 13.279022110746094 13.15387899843108
Si 11.07621353281302 10.186116082120234 13.706070853208683
Si 10.876168516784977 17.051298049214935 12.663440724033387
Si 12.133293541698364 13.179750426178543 12.855099367736708
Si 8.716764030406669 10.65484694022292 13.839661913386756
Si 12.662374434038961 15.438229710517065 12.137067368399434
Si 11.957629575621665 8.079566278483835 14.26878775086907
Si 13.946232929263951 9.984632983295665 13.584367189791884
Si 9.832257054608842 6.739465645998974 14.23688411821939
Si 8.799385818347718 12.604965563954924 15.255466306571412
Si 12.721046577488803 11.7514060645888 14.634156365329881
Si 14.309377168385257 7.731023491619211 14.339407469723817
Si 10.718827254290153 11.294365695625345 15.955265168547474
Si 8.214839960435919 8.468163792194915 14.741018378017626
Si 10.227454257954314 8.913865676168003 15.935216881824187
Si 11.292096848219018 6.754584392276021 16.18350660526233
