47
Energy = -223.97981816 eV
Si 13.823258925719985 13.208622773786352 8.047617594252591
Si 11.673465257265663 12.216278583843241 8.008275998180407
Si 9.942264972596702 13.753913590521508 8.402836484780183
Si 10.872440873319471 16.03416519007507 8.777996554684329
Si 8.675388819929855 10.014592311250485 9.075051327561791
Si 11.035403615552484 10.124794204861761 8.781894063567034
Si 12.655188023923422 8.36759713748667 8.858813998510385
Si 13.140415983764704 15.187853412575366 9.205127168529716
Si 14.431561814095978 11.913146831429803 9.928839741691874
Si 8.531463656266707 12.340127204094841 9.723751096461076
Si 18.199312258514333 12.58334229621037 10.48366833452491
Si 13.785183222165806 9.68112329266682 10.47851009943767
Si 10.667776770054248 14.85449702431323 10.7922587672125
Si 9.539422754332138 9.171560857019825 11.104202433068428
Si 10.92120405873055 12.403299719676568 10.331739244848492
Si 11.478386816311538 7.851781300886291 10.953723878298465
Si 14.965150249853712 15.705168997788926 10.757899886424257
Si 12.074227541728927 9.851667840713946 12.294588846748317
Si 15.888029797132875 8.639701906771458 11.222894938148976
Si 6.875453846209638 13.216261960269803 11.188437603058858
Si 13.02521737593255 13.559523142473566 10.961914378093597
Si 16.009375560271366 13.482391889055712 10.864977905350392
Si 16.555709000034796 10.852356628704701 10.480745489293742
Si 17.334332623448656 12.158042107092303 12.681286098834573
Si 11.882378941490314 14.97285243409418 12.86369700107044
Si 8.680764505825827 14.522070184683088 12.116682560422971
Si 8.124655165764166 12.204217341977227 12.892955350827357
Si 14.357158162220923 15.407130116404176 13.146542912211832
Si 15.73599456530604 10.30011483027598 12.855164111119574
Si 11.467962415336066 12.807184156873673 13.805937648064052
Si 11.74990040737207 7.606216201536797 13.41274060951399
Si 9.634869474088239 8.72528572829314 13.433534954821319
Si 10.237086664901678 11.326141130451902 12.35199540617022
Si 13.740444845445126 11.684650547467774 13.595835623685792
Si 15.507766206447696 13.425485808565979 13.545544339528726
Si 9.727777720089533 14.881864094059608 14.20287182820977
Si 11.087677962272268 16.82204540455584 14.193068554361743
Si 13.013386794088117 15.659683743983384 15.078172898576396
Si 12.730167989235003 9.559860362227905 14.678813892940697
Si 7.583106775182811 12.035633482646146 15.200958790687105
Si 15.009214507425776 12.46978279005758 15.658548132536936
Si 9.142415275273173 10.302398859997718 15.03080579639291
Si 15.022822925399087 10.13029223764414 15.12313159019066
Si 9.76098580488492 12.963169304761733 15.64121253026747
Si 12.8316810359887 13.402483424400119 15.828069040139637
Si 11.179139569510745 10.658683559226715 16.0579178734983
Si 11.303681158459215 12.571616741409137 17.489419312362788
