48
Energy = -228.5462329 eV
Si 11.755037719850955 12.333950351813 6.961326728883819
Si 11.891641667101636 14.654637024362502 7.683733528566348
Si 13.654303014479265 11.584701734428755 8.283134391500136
Si 10.177472115111463 11.085968007556128 8.194155612812489
Si 15.502379465085676 13.073706524040954 8.150064483136745
Si 7.893122577157252 11.067715587420306 8.717787329870992
Si 13.49001139857435 9.318272422894777 8.993589464932834
Si 13.724487245353583 14.227825194229027 9.251805961480532
Si 10.31810676792897 14.884236506695856 9.465649748412412
Si 11.185861539349885 9.314441077757829 9.363130400826234
Si 11.679196095054724 12.854701530388091 9.42364762268891
Si 9.646879807351885 7.67517460214163 10.087546105377927
Si 8.979096569066158 12.953697477759988 9.581270244078889
Si 8.29142425432087 9.586940549764966 10.703429643484775
Si 13.60303022583969 11.114398889189081 11.101006096346318
Si 15.635021837016414 12.104812276757272 10.315581532362947
Si 14.464147134425714 8.858811289656852 11.127761715794762
Si 11.541615207993773 15.248193956274632 11.530274329996457
Si 13.88032539978409 15.74676859209423 11.133617271969364
Si 10.557672466990992 8.570732369716593 12.082667739661044
Si 11.213320926325702 10.903164954590244 11.265110611450499
Si 16.6045592424255 9.987297115386603 11.04741801606472
Si 9.071464059467775 12.040430297287818 11.69091691933759
Si 15.763855226965038 13.936019099267783 11.912102478608375
Si 12.794372932549386 8.893104218099198 12.808978033657887
Si 16.302302827614437 11.121192207623418 13.058231532044124
Si 14.104200228720503 12.410541493087283 13.207336445607105
Si 10.2236803599382 13.671123498006557 12.992113522188083
Si 17.782662461442985 15.042987277250452 12.736153752660561
Si 6.71025493763174 8.889245595422054 12.40513254085011
Si 10.605765655174912 16.039055995571825 13.569254074685245
Si 13.882112324391864 14.755785684321188 13.412981017948926
Si 11.888222923031167 11.457555741380766 13.597344957113252
Si 7.380593472807909 11.043219305643055 13.044554312058862
Si 8.360885547211158 15.142568842894121 13.530680693198581
Si 8.785016187207493 8.884876653955368 13.68298340046776
Si 17.587558002377644 12.91634728155649 13.833732508250717
Si 9.565271624484105 11.137951954598023 14.244275673607218
Si 16.063819884268483 14.82879702635612 14.39138602486108
Si 15.040652761059206 11.197061952465697 15.00117060439072
Si 13.117412834479044 9.713322187893551 15.005888105502056
Si 11.33584047857063 13.279564951600989 15.205124639191915
Si 8.977442680901179 13.542098675484704 15.215194296458074
Si 12.357443429206665 15.475008624944461 15.138014295095006
Si 11.26139847631177 10.855939834314434 16.08358977287409
Si 16.43566272981404 13.027841602912241 15.90721094309947
Si 7.568348461306851 11.624287117279545 15.499102196711446
Si 9.054802816599118 9.633680845985905 16.072594679954783
