41
Energy = -196.78023735 eV
Si 11.701588649527976 13.233275946722115 7.76569450005674
Si 12.61151342132023 9.940267468032152 7.6526745994956125
Si 10.49728758112763 9.571988924978577 6.574951715574335
Si 9.920123447418941 11.799746176453132 7.2099315214353235
Si 13.666610336817776 11.979828202588797 8.074579602110708
Si 7.70520763262202 12.513438932294875 7.779524814121432
Si 10.674852050631928 15.148965708153664 8.734311376889696
Si 13.818267442753564 8.556482381632748 9.146001739485211
Si 8.636416662160315 14.039924976938163 9.329863602206865
Si 10.84536229609308 12.859418232217658 9.966705380090039
Si 14.491807966764773 11.498194350180489 10.229375138132509
Si 15.792365329550378 9.53048207721825 10.186282063274849
Si 12.298362150033029 10.447853779952968 10.093797739337033
Si 9.992587045276816 7.88584209027353 10.442128561311641
Si 8.704767527597708 11.492164289731633 9.6801820525541
Si 10.249004653777751 9.74418288532858 8.940781137897462
Si 11.37991518870116 15.255536733548553 10.967676719286121
Si 12.307869199065719 7.985411758461707 10.79859940414555
Si 14.56025935247155 13.337327004029298 11.700865278017107
Si 7.481286534757949 14.781924173919498 11.326233122402952
Si 7.503165089530201 10.632220519250225 11.559299425178947
Si 13.41373797859882 15.460152416880494 12.194858279154799
Si 11.012793886891611 11.183470047838608 13.03600738606803
Si 14.858549717330764 9.095806819158245 12.296403666449306
Si 9.540236621236241 15.090538727706353 12.39953847275388
Si 13.506456025656755 7.241590755490507 12.67167179388857
Si 12.181053909315244 13.12956821320424 11.996409867039576
Si 9.538950734135666 9.50960857206526 12.128079675152025
Si 8.055141687725948 12.750618292501459 12.39138935800697
Si 15.592274821521904 10.10619051270771 14.303482482645276
Si 14.976142232621113 12.319899123590789 13.781621880326364
Si 13.04369466399072 10.96185391867753 14.262439102243937
Si 12.08314168158992 14.475380870309486 13.99626074893592
Si 9.468834559716441 13.009574511235973 14.241054391451856
Si 9.966333686764301 15.27533152831599 14.72842197716468
Si 12.329242374980218 8.54898430023688 14.200555638135365
Si 13.48154982487921 13.161199184246765 15.346752636229217
Si 10.025944525679241 9.045497348838225 14.408683401093738
Si 10.393097923711817 11.191287710945401 15.412623722695404
Si 13.771227108013363 9.397861907182326 15.901814914340795
Si 12.50584070062867 11.393972849948456 16.725335336207866
