40
Energy = -189.90895425 eV
Si 13.85390206835301 9.98916611282504 7.106946695510634
Si 11.694102954956268 9.014118204347387 7.443713511597867
Si 12.997407602384955 12.108824492965002 8.029441124761187
Si 10.643285947816109 12.498246792637183 8.394107862327449
Si 9.892320736632566 10.317093520993577 8.114619908642041
Si 13.942299040480933 14.324761813788124 7.928300051013021
Si 11.336470680129693 7.007949774126064 8.869105337521816
Si 9.27775204610773 14.292915279550654 9.197229783268027
Si 7.8695835505848395 9.425708116528785 9.025474337632515
Si 14.13321653704728 9.437721032008225 9.436207054586117
Si 11.635686586665054 9.318962776985845 9.860044417933816
Si 13.150364353041212 7.444263081058027 10.493985569923382
Si 9.482590308354313 8.039472880934614 10.027983730496437
Si 12.872562950418425 11.4481331249579 10.390459231544627
Si 8.214784265144287 13.184441179280116 11.183985001385288
Si 10.41259561111925 12.030271588343268 10.724575888709065
Si 12.06680970358428 14.785932565564615 9.386505758034662
Si 14.538317952060943 13.198239535676242 9.957833710444095
Si 15.412548887522613 10.980698862729767 10.727732432852289
Si 10.450406533561663 16.260878609884795 9.996985682577147
Si 8.24254689755281 10.756196305604941 10.994650696738326
Si 13.596300604375982 13.765508547337923 12.089547834455995
Si 11.559735919585442 15.118970798383938 11.898080877521307
Si 10.484742442596161 9.829165117147266 11.913367211872114
Si 10.105694838936495 13.413823847389024 12.591051995485529
Si 9.657308042509321 7.414734102405867 12.276219878233208
Si 13.870021347077683 11.452165580145591 12.526218676944813
Si 11.986455013342368 7.843217973540486 12.589525359006144
Si 8.235546625101083 9.74387938570739 13.206422899712996
Si 12.181411694707071 10.319243152012438 13.681202199699667
Si 11.821025155548634 16.08501003336442 14.184117775531586
Si 10.803983432784463 12.10716552513085 14.428707371472601
Si 8.016003429297744 7.441700091012387 13.96363244023589
Si 13.935192283672686 14.81648100647329 14.202752664844123
Si 12.27908677193829 8.296356684552649 14.914063763186348
Si 11.961734058147272 14.020185276104097 15.313417893308678
Si 9.886773911665944 8.662344118451985 14.869042099067824
Si 8.93712952121161 10.808175852835582 15.189256836016222
Si 13.825382898526778 16.95391883140396 15.132002624226718
Si 13.656297941012554 14.963339571365859 16.660862957233274
