41
Energy = -196.4359408 eV
Si 8.999892237709751 9.687116794536667 7.100375450954226
Si 11.417149994641811 9.088166698043903 6.849849055159794
Si 11.667492512846684 13.128565406176882 6.945708095210934
Si 12.566133774998258 11.070264096057885 7.749903441718626
Si 9.622265406567893 11.990113234018587 7.592180264976864
Si 8.378542993435081 9.087027926712171 9.43504198258482
Si 12.060401970492201 7.694077312350221 8.663096034423349
Si 10.544985174131101 10.016147543632725 9.000822391198824
Si 14.772883228400723 10.508898817585536 8.494808882161651
Si 7.7572878721165575 12.966589426416961 8.785307458275565
Si 10.843329904043177 6.9232965322520155 10.513547148816784
Si 12.033752173811266 13.587094483133148 9.285722611617327
Si 14.082965178498982 8.488702458665616 9.497144153726179
Si 7.604391772882025 11.104756303304269 10.284154586856001
Si 9.976915925560219 12.238211753058478 10.04385236637326
Si 12.94813070111183 11.474182201892 10.329137741483713
Si 15.344951418455198 11.83266999114894 10.389000285607048
Si 12.04779821033358 9.182273987578593 10.705423861298708
Si 14.207816834718182 13.887136094363191 10.27727721531927
Si 8.597091043524124 14.250064393439741 10.64310257751294
Si 14.512254513247328 8.09917007518156 11.811621848991837
Si 16.003141947707086 11.847872299138476 12.748636034890694
Si 9.120782561199478 12.173924132396252 12.24406841922045
Si 10.850522241174591 14.7739162033311 11.00838676482216
Si 14.16476412362119 13.37397296017132 12.592551343438089
Si 8.46769955350989 7.122253081222372 10.881153431176287
Si 7.352834492224808 13.885172795538196 12.649607648847576
Si 11.659848939084132 12.934872133266502 12.570721826447322
Si 10.574343112089023 10.010887230131313 12.429610769448548
Si 14.153746998021074 10.419171870231686 12.484243373831577
Si 12.295585195133201 7.331776813749553 12.285278148181277
Si 6.741827085288784 11.497173873366956 12.470935642185726
Si 11.026274777789448 15.318483622778045 13.352303569424691
Si 9.059254950317406 8.348470411608869 13.012220903618774
Si 12.850144621430879 14.175203010634995 14.406308328625999
Si 9.273658340800164 13.791119401842389 14.06601472892593
Si 8.507571490431156 10.542358410404775 13.878465571384742
Si 12.324171857805155 10.195806559626874 14.004669136617057
Si 11.148331056293333 8.052828375171227 14.237392199415618
Si 11.519623407294535 12.184191852655324 14.892478863393315
Si 9.276395086833297 12.072974112759754 15.744830521411519
