45
Energy = -213.35433647 eV
Si 11.80841280953268 14.042107861616763 6.415534692883059
Si 12.99093438224391 12.536729092300662 7.778036394209963
Si 10.34716060950239 12.699319180072518 7.770883583224944
Si 9.419327611552093 10.42655154971121 7.878619364667521
Si 12.077278459190849 14.832394062676896 8.729205258869541
Si 11.642551846365201 10.671000889690552 8.646577003780946
Si 14.647403163645562 12.679414219799993 9.558043589620631
Si 15.944564323496348 14.694641569236245 9.951845201271498
Si 13.227205150581538 9.713336083169551 10.226576439783754
Si 13.798820421069683 15.740028882365413 10.209368985699838
Si 15.42998171241939 10.459551124441276 9.666633646930459
Si 10.326861806896408 13.653557317939457 10.016078246121806
Si 9.453164987699457 11.303209109066987 10.16118740907026
Si 12.755168932442572 13.493590703449252 10.71236878930866
Si 11.669533996049408 11.440247394515412 11.086206088767733
Si 13.051708351122125 17.331435303302833 11.829496368151068
Si 11.78071885827765 15.310489659672522 12.175534301999754
Si 15.869452013906187 14.292850236227215 12.31272026406449
Si 9.44023989661956 15.189496477560523 11.607884927422441
Si 13.12749021881501 8.67800691909839 12.412104444875894
Si 14.833518754728157 10.714614167243598 11.920700230780817
Si 8.894895581639812 11.013809066076746 12.553229576376786
Si 11.077468317598461 12.126402631270048 13.23828746449596
Si 14.48899188459976 12.619366261834816 13.271036203678923
Si 11.049887641137994 8.419245815716069 13.473535360169803
Si 16.799657374005957 15.798537414666303 13.83428570844632
Si 9.110202235844083 13.360010430875777 13.142696989819008
Si 14.550242815630055 16.342244690993372 13.355737005671331
Si 12.34791449084227 10.379642912927384 14.14880536662818
Si 15.326581648345943 8.956362767265214 13.428349407141928
Si 12.693305417794791 14.053279090704573 13.99873524377376
Si 9.616291453840036 10.77325453034867 14.816330338540102
Si 14.688645186252945 10.808710939954764 14.862606206912687
Si 13.186669955479232 16.20959501824132 15.31749062955885
Si 15.493287513999396 14.98052399153494 15.656835269905589
Si 11.046554141358975 9.114725630758578 15.857766066579236
Si 9.138950370046512 12.998257316488148 15.608749327140025
Si 11.53867416410647 12.975792972549982 15.906816818419756
Si 12.639561699761195 10.918784727414419 16.536488119662643
Si 13.093955497173537 14.367219103461037 16.945245477009173
Si 14.957920583967772 10.687783823344905 17.22583094722997
Si 15.09157160222015 13.069932120149224 17.152378760577534
Si 14.577918913531015 16.475974138872385 17.42121338930409
Si 16.47090130842129 14.90488216955879 17.97749602140137
Si 14.280922005030149 14.54556074061908 19.00691917883569
