46
Energy = -217.77175764 eV
Si 11.941093178890993 9.702066037855532 6.711848460467929
Si 9.460193211676671 9.513164376219184 7.1508762773802035
Si 5.967199226629199 5.510500520978777 7.9281262648461
Si 12.78248276420961 10.055622206186316 9.06675873364448
Si 11.138714524601752 7.352296172250528 6.586391366668677
Si 9.448955757698188 3.9527526616634385 5.635926173946257
Si 7.856614697414106 7.346167385721903 12.855937268593378
Si 8.114064758784284 10.741215454990598 10.885143881554228
Si 7.793107141493401 7.901152694400202 10.403766395616426
Si 11.621269221508618 8.939462374966368 11.27845042553484
Si 9.687691444762743 5.639926874017623 9.313023679664191
Si 6.021420573301519 5.9621869496608495 10.205461755575051
Si 2.8916904130874657 10.247360545068052 9.089065607996707
Si 3.8275941645281235 9.498467513523458 7.029521395163487
Si 6.32557637936177 12.373887275571407 8.043103938340689
Si 8.950154127907405 7.011645696472608 7.5196935148507364
Si 9.369969737742677 9.052782050199374 12.132864464144737
Si 8.91165980833788 8.548449685438177 4.971910053856747
Si 8.116126964565028 5.591620880028166 11.151665334881795
Si 11.487015002830182 7.216935460596483 9.565487737858579
Si 10.963651516435498 7.65100840203643 4.215712845925181
Si 9.820350702355222 3.5250733156094403 8.05893048701935
Si 5.694303836760278 4.9191328562740475 4.81147239757336
Si 7.252730483299018 8.667109609227746 3.1782569278872512
Si 10.557151581706414 11.074513568312092 10.481946217051284
Si 9.654126968919437 5.646014694164429 3.9968891709738616
Si 7.820381688313012 5.806477964586387 5.736391879489002
Si 6.053806624882908 8.743240687903734 11.899614566673733
Si 7.483550178542846 6.273605151933927 3.236746356161486
Si 5.406703495828218 5.437440465179074 2.5341506885251333
Si 7.248050450990381 3.0422332327534414 5.22713438469569
Si 7.546597370015667 3.811893170160568 7.436672456134265
Si 6.020953893579032 11.17442884831074 11.995953753132175
Si 6.648278024198551 8.03159220147151 8.137357738234853
Si 13.134909273650232 7.769213924701337 7.90438583513305
Si 5.128755412190533 7.581045308709645 3.643145913255093
Si 6.553854103244085 8.608350442800502 5.661163063034393
Si 7.418732837026997 10.369031891132515 8.503059741388615
Si 9.786533376803733 8.939840198796949 9.571801351260088
Si 4.054820215343717 5.256097225635531 6.542896685652636
Si 5.763606840205683 10.670406271688774 6.489009043420691
Si 4.28992369312437 7.256340132233564 11.222880073341715
Si 5.10560390167992 11.03747747361169 9.72674835392466
Si 4.3369391639092605 7.504391818706101 5.883900087019732
Si 4.64089166797966 8.648225109602803 9.28841603583226
Si 10.900084632326369 11.396038251290616 8.08822624931846
