47
Energy = -224.0926752 eV
Si 11.570981212892395 11.08634967948149 6.483167593162911
Si 14.550770485944527 14.222012343102895 7.328202964039518
Si 13.61334543439817 12.042419024733784 7.321678171161255
Si 10.733313740577527 14.865458378079595 8.08603179100928
Si 10.740209193629791 12.514581830413876 8.207768686650784
Si 12.882991586925206 15.946578903926484 7.951073383630631
Si 11.719135154272008 9.666742731722703 8.354924178529277
Si 13.732052290293455 9.341137699126545 9.418743929075104
Si 15.287940450708875 10.6626119138735 8.261936256453373
Si 12.784574281755805 13.66326675292991 9.136917008741088
Si 15.427572572312373 13.927687464559671 9.600989989235918
Si 9.419077181009605 11.961319455403482 10.042335432439256
Si 9.515977891400462 15.876956417140994 9.845658055761861
Si 10.436313610457919 9.034911646469883 10.155200767376574
Si 8.262610046888511 9.935713930259432 10.237893268814016
Si 16.441578217160203 11.854885561678556 9.945729225266366
Si 13.951333542079126 11.749389582131595 10.124633054276307
Si 8.764567640677654 13.940105622019875 10.95801476514635
Si 13.269909754338915 15.747495632544267 10.37702630701694
Si 15.472923224379853 15.65757644642797 11.239680563736368
Si 11.48962365142797 7.1957492819131295 11.397452779717048
Si 13.82619329089801 7.7544545758385235 11.141536583360862
Si 11.225541461483461 14.946023537352074 11.149584751929751
Si 12.228174462497595 9.568340103927552 11.736795723272408
Si 8.66200315841526 10.440566174111199 12.484054338177515
Si 16.438323059757384 10.891351475878128 12.21065284950923
Si 14.350927474563857 11.941259968099551 12.54867208065187
Si 14.283383779903744 14.299369855237272 12.73364722196635
Si 7.341255034273188 14.318512691378 12.844883759521682
Si 14.725349534427494 9.285196265531553 12.743438536953096
Si 8.926379223960026 8.660487965650855 14.048822170513159
Si 7.816073957270595 12.218537807730655 13.798899065320803
Si 11.145632515191009 7.754879801501525 13.720398009941498
Si 11.442509515522396 14.621057473331287 13.467270963923747
Si 10.818445556577933 10.23717412229324 13.579891208097767
Si 10.971756772874365 12.449914956843273 14.310876517802079
Si 9.202789196270933 14.55514604657556 14.324062479834108
Si 13.790534751257479 11.126188318352652 14.703628221430833
Si 13.380703365147495 15.231915294949685 14.72931503047184
Si 12.407977994255326 9.171984246463587 15.261583737812051
Si 13.018095686459318 13.061972259993537 15.754978188810037
Si 14.809797403914494 9.041341538476606 15.109779396856387
Si 9.261797815084151 10.077747962608488 15.882376456179939
Si 7.311824579610464 11.480397976836127 16.029668661554194
Si 9.098256932267558 12.976521053147934 16.04658063344971
Si 11.172652904158836 12.116358586655597 16.77866679986462
Si 11.157254746552319 9.7607849794201 17.265313777679104
