46
Energy = -204.18105136 eV
Si 19.18415493629471 11.688063202340286 14.85950068170622
Si 19.15923580050712 13.56524241961999 20.652375581805522
Si 20.878667198084056 -2.624063138287261 13.713204173046172
Si 12.49160198511512 22.872599858926456 14.629321614939734
Si 20.768344117593426 17.737229014788706 21.8331647735531
Si 14.896477999942082 12.678941959134045 15.312987534670567
Si 18.510161579916165 19.245646250840093 13.316557052831381
Si 19.653146768627384 17.640107031734416 19.189162139916096
Si 11.087756915369182 20.923668922974436 14.942139095400744
Si 20.088859750957653 20.653050872825013 12.356045498957194
Si 17.985698714924737 13.581435842366346 12.484508566117443
Si 18.510511661343862 11.202934180117195 17.573807774289623
Si 19.414677027811397 20.863753047418538 14.71400898063848
Si 20.20994989106464 12.80714704820644 12.870931115937442
Si 13.52700481884307 15.666352271647385 14.992933394995006
Si 11.438743933711018 -0.0680163659343893 14.7351444896672
Si 18.208040965674027 15.729586806844868 11.620607368912513
Si 17.585748466015527 15.336305489013725 14.099139059177373
Si 11.813928104275364 16.936108958445757 14.00390801954528
Si 20.05902793069684 15.780218203101734 20.636772110260097
Si 16.733161033096078 17.071903388971872 22.72992324017399
Si 18.28229104883279 17.78197983733448 21.065579271553688
Si 18.335221615615907 13.407675102290229 18.41772912170014
Si 21.257012031562994 19.24859938481653 19.92729247809139
Si 11.00191054222709 12.934847378963477 14.199654585595201
Si 13.185297641203942 13.581676078300221 13.720502239030669
Si 12.364652817842716 19.078434412046988 14.585300628486943
Si 12.646652077656277 11.819506304563038 15.699677896421388
Si 20.06386227099179 13.131146881953303 16.76925537667051
Si 9.508784586832842 16.479603727675194 14.27159963743358
Si 10.042043003956833 23.01616922117022 14.641061578556334
Si 17.043813069903443 12.002429162854506 15.860153242205794
Si 12.345586123792396 14.081478390404758 16.22100784519469
Si 10.153127386309253 14.797532133587088 15.715784019788197
Si 15.73178990129543 14.974028982944297 15.492433339968215
Si 16.22198352933531 13.704866051442249 17.355651775117064
Si 20.353698072024127 21.428220667010518 20.393960720196247
Si 19.14627571416749 16.144958650517545 -1.7219963322180574
Si 19.105163183629763 16.98807160662933 13.315165457409007
Si 20.67314252361843 10.798702068772133 16.562482077645104
Si 13.123413810479937 20.912705296036993 13.42182493183594
Si 19.578140125447938 14.196083717902264 14.663387514926665
Si 18.78543295932281 18.511769169863886 23.343480294049613
Si 8.828736396821789 13.903682014460184 14.057516240172639
Si 22.482062853172227 21.060509316796647 19.579114395351457
Si 17.727021583585962 15.221994248346657 21.56483922048265
