45
Energy = -214.32334929 eV
Si 13.435343177115858 11.479486026241185 7.113973836112145
Si 10.568859766505057 14.160859181115681 6.811830618612251
Si 15.820026344725362 11.021185381190778 7.229951877284417
Si 12.686213542184175 13.639079104872534 7.748508262179926
Si 14.636043105383322 14.87976940481885 8.153389350807489
Si 12.366542283216623 9.474424330383872 7.656918829457858
Si 9.68263741927173 12.501309572335867 8.360898519297692
Si 8.526057206615484 9.166067421124614 9.61034178532923
Si 10.573632982420687 10.274099690354031 9.049068877341265
Si 15.35179988022361 12.679075283113654 8.86718585911688
Si 14.394137746171594 9.955929738514314 8.808204940781415
Si 9.64182546607666 15.002475085742367 8.88708292964007
Si 7.684168742951125 13.65589940684289 9.120479664409363
Si 11.194390967880434 13.428835668219735 10.061314241174113
Si 13.151909496813046 14.898414945636178 9.989687856109699
Si 8.369332545018676 10.775339645374855 11.295134370363916
Si 11.086965728842916 15.965728336856792 10.532172500460318
Si 9.503524797273604 7.874312044381334 11.410509548793826
Si 11.642166312138608 9.40160402657456 11.051842265543247
Si 14.138755210626165 11.459754149475085 10.79873196641588
Si 15.308660049122606 9.110789032960197 10.881873936883235
Si 16.176317947076782 12.888056495177526 11.159938463651951
Si 15.999344231456792 10.84300640869416 12.384615026893451
Si 10.295567068077 12.230572150867353 11.954035073840881
Si 14.123894676886733 13.803423138466583 11.839138444608555
Si 7.72945112175669 13.001813146373896 11.36604019878496
Si 8.763295486870648 7.738584623174773 13.903572278458531
Si 11.61302744140106 6.891105657123178 11.110104181492126
Si 11.053856690864508 8.414111402260263 13.289632910682295
Si 10.940802382021499 14.688489805991402 12.560449813052754
Si 12.50010904416479 11.680383800148316 12.632429385069637
Si 13.551674902088905 8.583473694662548 12.384302748593374
Si 7.707786338954592 9.797060191062036 13.285813700198728
Si 6.912475642569485 13.687944972596586 13.485208248981806
Si 14.092850524685685 10.424576598452072 13.882447767767072
Si 12.819206202786695 13.876954015407847 13.742619626360458
Si 9.247273249090426 13.641570947652399 13.68674032170385
Si 12.60193779327144 6.610148140183971 13.275873422951417
Si 7.401957231577579 11.625009657614898 14.656639920625652
Si 11.524986054736823 10.446509446692621 14.707175007601153
Si 12.436725020517656 12.633024963386804 15.79234461229517
Si 9.276870235145505 9.849715546822589 15.231177302160123
Si 10.092606365949509 12.402348970716684 15.546220727456832
Si 13.397364544514337 10.442800893229157 16.193573734814358
Si 8.33683984167212 11.35409066582806 16.850017854555066
