47
Energy = -224.75772766 eV
Si 11.591640700589089 9.591693940786136 6.393672135872042
Si 12.619937790345666 13.895164518250981 6.221129918746095
Si 11.156000503702105 11.961386771843957 6.638238360744534
Si 9.279954938427656 12.307108956948865 8.011752244927086
Si 10.435815216476696 9.239829031605314 8.503500575219373
Si 13.106590163451912 12.777513061730444 8.22303108677456
Si 12.654397973122975 10.422164875070298 8.27193758173558
Si 11.69336701623514 14.811538512814515 8.297659631504052
Si 8.278835851271335 10.252415433484035 8.791086365332976
Si 9.309115769090907 14.605148766840372 8.759547615893807
Si 11.024857631196154 12.668825816949203 9.574652610430396
Si 14.379538875820344 12.862913265567425 10.178335537483722
Si 15.805570551351341 11.012391375156902 10.2285378210315
Si 11.3911173780012 7.923747462694652 10.29936189752026
Si 13.806880541173241 9.62626013763804 10.403932232471288
Si 11.35532314719692 10.394554638772208 10.605059681856362
Si 15.381458840071415 14.725919844383949 11.206695662838015
Si 13.716158948669692 7.228300404986785 10.445341308603819
Si 13.004202185177494 15.61318955889217 10.257495138167778
Si 14.695572679253033 16.964928050987698 11.314557809147292
Si 8.85003392198629 10.421261589083477 11.116120721852182
Si 9.810468739446863 14.020052784949034 11.067609541486737
Si 7.859082338218291 8.83101054429506 12.603129419639712
Si 13.019471817024291 13.113506971817493 12.149689125422364
Si 11.608184585464544 15.091774330922824 12.059736985985367
Si 10.151314691454155 8.420592191376004 12.238315912698575
Si 13.958745715181449 15.577753676612598 13.208474216458564
Si 8.892060165596481 12.383328983334478 12.458054825202312
Si 13.23510253587008 10.528625772951486 12.761824064285682
Si 13.779060329073078 8.096613345013306 12.662456436142214
Si 15.506185141642677 11.378680113731244 12.520927288919752
Si 11.822444874839503 16.330897332085463 14.062939868834633
Si 10.315016484005017 11.139514027158183 14.143530034500996
Si 7.890607297772786 10.637016091436847 14.224340974759853
Si 9.01022390941389 13.294144529136037 14.964538120745281
Si 11.805783754901519 8.909500327525935 13.860053632385934
Si 15.541585433024405 9.360973808869876 13.797540856098445
Si 12.453657957895725 12.331641782319593 14.514677013922583
Si 14.973677081703155 13.488940076194554 13.697462126336053
Si 6.962108182067562 12.854944599574791 13.719645537512168
Si 11.16687577643271 14.301514325418541 15.093914056170227
Si 8.946341491719275 11.348535375063767 16.27775472388932
Si 14.03894161102853 10.292764954947984 15.332168181831761
Si 11.283234225907815 11.003293941468723 16.43051620451631
Si 14.46534958906019 12.559913425097687 15.941390309499257
Si 12.369100504090172 8.915339924418253 16.233252506202412
Si 12.274021534694532 13.157887139931102 16.909428488539394
