45
Energy = -214.46370769 eV
Si 9.700749980249817 6.362365761871142 8.937730503875663
Si 11.949667719215233 13.674538087887354 8.192048969390749
Si 12.751373712962684 9.12281496174005 7.620687013524406
Si 8.159673395612046 8.194477424606529 8.322701304630732
Si 16.01948911332788 14.141442062475129 8.52857965075884
Si 10.627162794257805 8.582490970235467 8.506335587851558
Si 14.855760357480639 12.10626270028343 8.998118689524606
Si 13.796764853748288 15.07663785622875 8.817552115718799
Si 12.681398561741178 11.45033197686214 8.19051460541333
Si 10.459747475723686 14.26767357010634 9.843362872104287
Si 8.113454833905287 7.395810293436404 10.675409321731832
Si 10.549696439557675 7.719304855344703 10.788383536699968
Si 8.267341335986185 13.716225072440716 10.462159078547657
Si 13.10955801943183 9.556659702454283 9.996081394000232
Si 13.326340054350384 17.24938781191997 9.690479985165231
Si 9.162110042056668 9.557838139739248 10.116223732518977
Si 13.860406818172702 11.890535111461272 11.281434935945569
Si 11.70232918878702 12.070054893282473 10.344565381270685
Si 15.377572975331956 10.161313743650329 10.240228736193485
Si 15.18931134681298 14.053920041953718 10.735517187320038
Si 11.466279278961496 16.150143155595917 10.701721022643563
Si 13.670367153462504 15.662535910015295 11.495535804837031
Si 9.381510767829148 11.702762618358076 11.117955926258976
Si 10.17785343529962 16.76984981380494 12.590473119846111
Si 13.458361284256684 14.568189460299497 13.855960259522918
Si 12.275128905226277 8.748182559080613 12.084392535892539
Si 15.182651299918524 13.147518276170121 12.947221564877822
Si 9.116853644721477 14.694410421636011 12.462856363943292
Si 15.335478096674944 10.305273229142795 12.599026717494844
Si 16.661615285153246 11.677134643015604 14.026431642975595
Si 14.236086895124277 8.375611069325485 13.386439970920007
Si 11.271899805823956 15.48033663100229 14.193809417209987
Si 10.330698457158215 12.0744982304909 13.35840281989772
Si 8.389002605319812 10.299075858220231 13.020819291552609
Si 10.632813276468006 9.638733362051303 13.58723993547022
Si 8.978492755420161 13.89642077552124 14.631385567741292
Si 12.588083808996684 12.401271991004862 14.523018399104963
Si 13.370531006346432 9.82030316399208 15.041942510452825
Si 8.570906639944267 11.65101547306833 15.04914989447885
Si 14.751984081948223 11.621330540099647 15.464878588598623
Si 10.241443724176586 15.099559800543119 16.240896110528563
Si 13.985910550384919 13.752435400344147 16.265647045417264
Si 10.722516916035383 11.27373571027278 16.041095159213793
Si 11.69645933235027 13.263221913212007 16.676987770068518
Si 11.305158100385569 9.034361081851047 15.8065940849627
