44
Energy = -207.91747833 eV
Si 12.54927995902497 8.766529568543218 10.415852301237338
Si 10.64908073836601 11.662342604661939 6.241696945860335
Si 8.536959404046035 12.639311578447206 10.116735912552667
Si 13.369346078811736 15.40076460278554 11.938747233327419
Si 13.139054785881179 11.329516295081195 14.902892518636659
Si 9.829968373084485 9.03704816664155 9.560187914930799
Si 7.517017332888888 8.608664134767155 10.606514521916113
Si 10.540147906289436 15.962502220023739 12.543331898361771
Si 11.629916693787154 7.682138651702533 8.43705003015276
Si 11.661220090063143 16.340717541496538 10.358780647013589
Si 8.838490520655023 14.262134004158382 12.566111020676898
Si 12.937538387156993 7.97508043588193 6.4695952490651125
Si 10.683581265973723 11.15179474613614 15.014989173948726
Si 10.74266405313966 12.294598887984202 11.589135773004537
Si 9.173823660455119 8.462982382285249 12.406759249216798
Si 9.344276315178847 11.24395579212457 8.26703104878243
Si 6.798542928014923 13.557306324734903 11.604202162793598
Si 10.56814339944422 13.34412786337767 13.896972456711723
Si 14.877783688495764 8.96119476131825 10.00088043154977
Si 12.192046404602138 13.92471719422045 10.50125047951643
Si 15.257173443781683 12.560049679354831 12.444277456428715
Si 11.910141177353006 10.540742936248954 12.838966423042761
Si 8.412038737439024 10.725100601037976 11.57858338128051
Si 13.739092000663042 11.151330772394822 10.934522247515222
Si 12.162091306989666 15.15241637345875 14.166842649445725
Si 11.598913120327692 8.181555762971023 12.59116471886022
Si 9.852504082376372 14.685713423094091 10.30497918940206
Si 6.789279468931777 11.689631680866032 13.181481762816539
Si 14.00691024389781 9.243723738680261 15.909982348525299
Si 12.99549375954229 13.1320300576721 13.000731987896256
Si 11.421066867386983 10.886907876520224 9.648046341201319
Si 14.04400645524063 9.4824109749742 13.590997823832645
Si 15.290294709591214 14.264024340330074 10.706292221519295
Si 10.966300106497998 9.314200563819528 6.490168691140667
Si 12.586372922921521 11.615178837302992 7.6930633301070035
Si 8.644349781699196 10.472099266234082 14.000537776815817
Si 9.375883216619924 7.780676796886321 7.389998011671207
Si 7.751970048572964 9.396220778989226 8.278983793929799
Si 13.706022070391546 9.59531004387135 8.011144613541196
Si 13.862970115071839 12.862336238373034 9.27335614602785
Si 11.786050799243249 8.882162284317827 15.03722163539141
Si 15.736274723734347 10.234228130260561 12.018316686223553
Si 6.34476295054169 9.414835527091746 12.579209048980406
Si 7.702514427180568 8.307865694677837 14.256423997629213
