44
Energy = -206.94871763 eV
Si 13.580994965084646 9.040260073497283 11.551671632169977
Si 11.977242444860469 8.027221841614278 14.031753318552788
Si 12.095157052312068 10.988091870737824 11.697450823469904
Si 10.660409754964096 9.827354970789818 13.174410210200065
Si 11.86331979321785 13.13248048320891 12.734382505382726
Si 9.69441555627999 7.627561046770257 15.035127706420905
Si 9.4834083845082 12.837803961270573 12.342488223726411
Si 8.831482862753965 9.917161887856116 14.656882402078253
Si 13.638735736111132 9.246206583739053 9.154814534296316
Si 11.802502460904957 11.06589389337254 9.285791373672557
Si 11.800164415538152 13.740096541710837 10.45161894587637
Si 9.957133235116705 14.690655254568517 9.291200692285342
Si 12.855704985700893 6.745508949536266 12.081440144792424
Si 14.311557469359562 11.118402444961726 7.743940191038081
Si 13.000944562456743 13.075871513677104 8.479565875032812
Si 11.64706858725334 8.13347043478777 10.198776124982796
Si 10.18778042538906 7.3503884708244955 12.57300015059614
Si 9.474180717829757 12.263494441395599 9.977179413755113
Si 7.748874025889085 7.474037855588201 13.61701143820684
Si 9.664472240604356 9.368161692433976 10.944714942054059
Si 7.658554403429826 11.870313253475425 13.671049294977575
Si 8.131776286787444 14.19989736073669 10.79989790355582
Si 12.761996658558719 7.146186652768349 8.11237540119216
Si 10.86423868201817 5.8787730631223525 10.71499313723169
Si 10.745217969978942 13.03140083651871 7.752640278622659
Si 12.83677616634446 11.126350424971497 5.788088027248549
Si 6.454681157103718 9.615614928771963 13.721170375747398
Si 7.702179364834021 10.780072733974498 11.497381875123857
Si 7.029717360828179 12.28801598107501 9.645833575880975
Si 10.779362298052572 10.22662392947269 7.260832492788471
Si 12.91886065565152 9.025349746948473 6.662027745094342
Si 8.148184397985464 7.354583524470256 11.148801948443658
Si 8.507390819800172 9.059895433480383 8.784104289510559
Si 10.439275026469584 7.858959819311146 7.5197695549118615
Si 9.068148165482912 6.471150990707432 9.11585168566098
Si 9.648561702743416 11.873084854387976 5.985044727093794
Si 8.029954468335562 11.2956011592549 7.676173489161308
Si 9.536658433104522 7.919811810350069 5.249291313573632
Si 6.212720000373935 8.748233759629898 11.506518370477185
Si 6.272407012696001 9.758416670364209 9.360311144510089
Si 7.659704527369968 8.150858738984684 6.688810081089192
Si 5.416165582130038 8.415461573899112 7.464519985765906
Si 8.304945053005431 9.957218302385662 4.891221753773529
Si 6.378609791858681 10.293125546206753 6.314721898384989
