49
Energy = -234.05413591 eV
Si 14.490034636852648 12.138508609223877 8.793154863287304
Si 11.940203329120504 9.441336769765185 8.744176639664996
Si 12.842289546188024 11.220991942964577 7.344402717110351
Si 11.271728225699476 12.941151212955383 8.046538573486886
Si 8.896005449797594 13.280573792838135 8.29960886350377
Si 9.608137154177658 9.039174211435396 8.685722947893701
Si 14.693469163785759 14.519238888698759 8.81864573212538
Si 12.362731327669238 14.518819075291532 9.523645630421907
Si 16.16846074479259 10.610874677183364 9.688222888021496
Si 11.158694505695644 16.678120407752647 9.889715102451154
Si 13.192892140268466 8.049504673280962 10.171133154896108
Si 9.317379504741346 16.336048133882336 11.520691089959396
Si 9.710207892570645 11.338646875265239 9.409648360024619
Si 9.866279422368038 14.445245450544373 10.205250589903306
Si 15.298137748465399 8.669107944004045 10.88401726569147
Si 12.296534981934505 11.537710008879928 9.837058388486096
Si 11.354107925371524 9.88030674118907 12.208722641615447
Si 17.113688246109845 12.088831907742115 11.446754337708278
Si 12.002194923728545 6.293280854498573 11.299913115084829
Si 10.423045159576546 8.064995476446795 10.72746144454672
Si 15.69481231256167 13.94391847798683 10.891476860822499
Si 14.639429476546026 11.517592578600908 11.332342184933196
Si 11.762463067179059 13.373932028409477 11.598924366801285
Si 14.198361457435892 16.134022726237337 13.401589400561667
Si 12.33381469633706 16.31829860761714 11.935309293930196
Si 13.770807008284864 9.501970748063695 12.489412997605015
Si 9.84348950385362 8.03415476568604 13.023742941479657
Si 9.998314618504171 11.746570939080021 11.708730230834002
Si 8.119122039974288 11.80829233702909 13.20404194120983
Si 10.618207637675214 14.82405594108018 13.137301027799456
Si 13.987420617472171 13.497550501822525 12.60714992354489
Si 10.887504510144323 17.229469773721465 13.50938173249272
Si 15.878966503461639 12.443058744819204 13.583627824968822
Si 12.178461299341558 7.703502866309293 13.372051076638307
Si 11.885852357430595 10.862214533017193 14.541245083225578
Si 13.367094186587986 16.744365521704772 15.571904858938565
Si 9.534161332749553 10.13723528096652 14.13637945588204
Si 16.200340399032136 14.780012618615865 13.030009585908603
Si 14.161332458351358 10.028505200349292 14.782732059018908
Si 9.509744730580564 13.173445891351811 14.472338589079573
Si 12.93574733653451 14.456388974091459 14.673741716994495
Si 13.505417135188576 12.49725580277659 15.867334920970125
Si 15.672245385248294 11.515130910527581 15.815728475668891
Si 11.038112885194066 15.486444274287093 15.60129661492427
Si 12.493233639888686 8.57635435710607 15.60963940290663
Si 11.311908772590531 12.072097726482944 16.60061499092209
Si 11.195024446092502 17.821618626838966 15.795640294076229
Si 10.518839051757858 9.794376661743163 16.376127547112258
Si 9.684850452199797 13.816996276947426 16.717001601980094
