42
Energy = -200.39431105 eV
Si 10.896769040724664 12.509931332652394 7.0449102910031005
Si 8.825531476264308 13.648665175548134 6.570364370844271
Si 11.989293431467832 10.326595851612872 7.285848780583603
Si 12.41534748735619 14.189889683573814 7.655975704546624
Si 14.0225945395795 10.861707713779296 8.546913754922471
Si 9.8726702782033 15.070153100730217 8.266406644613529
Si 11.812949714388125 16.399227925584388 8.339034708922497
Si 8.223122849391002 9.982361981846937 8.810915598823607
Si 10.465927593246317 9.140756321070677 8.764379337086712
Si 13.81621074718825 13.18116408682135 9.246362758306985
Si 8.802040723567083 12.230407099708497 8.472918453414186
Si 11.852697918424013 10.671442432359106 9.89583846100868
Si 15.035369452981344 14.867835310336218 10.278755610511286
Si 10.793359601440736 6.9128940664180805 9.654180264949737
Si 11.272975436063172 12.922370412733528 9.566683073282105
Si 13.965072533742285 9.715906726934548 10.676045517608815
Si 12.72865485465916 15.494078358726394 10.394279347781447
Si 8.988038329966205 13.906906508887756 10.118167478172804
Si 8.771880194341774 10.129453378496573 11.090399062402977
Si 9.802582226616233 8.033903397110919 11.542852017534814
Si 12.543772731907598 7.833595521389652 10.996326277401216
Si 11.694305987615477 9.00360037200756 12.956973015448021
Si 10.652912841888211 13.509453968887101 11.897855904871863
Si 8.087632839314617 13.763771834156147 12.358207027576558
Si 13.321225157859937 6.76960795458907 13.047432023808218
Si 7.7284472595346285 11.4418263209852 12.758936119051219
Si 13.12969700743509 11.644856744886177 12.428217402170732
Si 15.117047565159078 10.239874979157836 12.797788109687287
Si 14.24598995886865 13.68839875336515 12.165164468215043
Si 10.672744361705663 11.18080999689255 12.310496114680683
Si 12.302047950308603 14.940977143454102 12.74831417605589
Si 9.68192311832578 7.939819932349172 13.905595255548848
Si 13.864518840188788 8.776293553884562 14.219205855530832
Si 11.770772391800344 7.2348343148468315 14.770893603081666
Si 9.583325845229423 13.113893505556334 14.172831471831607
Si 15.099056586039756 12.395397437741568 13.990384916230722
Si 7.966054549931956 11.634022717438024 15.164069603985785
Si 9.797116779361076 10.303305582748363 14.474553464875484
Si 12.816254753331124 12.386254474926508 14.777092876580861
Si 12.035461984051388 10.23083991562253 15.345356606965767
Si 11.473903895169975 14.3768350368815 15.045477789188205
Si 13.091605239809427 8.424985147750451 16.476502755341652
