47
Energy = -223.35790206 eV
Si 12.841188403801548 10.201989566157833 7.126633678985127
Si 12.831608152864051 13.606699413984897 16.68765154849588
Si 16.10972813501788 10.039038325775808 10.642647631956969
Si 11.205335879114788 17.083095741580916 14.753968213763653
Si 12.741932297711674 15.202180617712365 14.910903195333109
Si 16.137756107468334 12.689045174943164 15.961619048019706
Si 10.151565473942943 11.757895627706516 12.119670205272065
Si 14.186396419242397 9.408614949164743 11.983197133719731
Si 14.990025079891609 12.032033538898913 9.99438526247307
Si 12.617010110562374 12.34079447648941 10.628808360789177
Si 12.30159291104388 8.929652336875813 14.51325813701916
Si 16.934852324021524 10.848358231624832 14.563787737280867
Si 13.780150834477661 12.136771116022732 8.033075625334591
Si 9.23065072180569 13.842232518276152 12.846605589657107
Si 11.874099603308435 10.018566970340496 16.56740895346181
Si 12.028997026249048 13.60971988015272 8.446635882345463
Si 11.942949088104408 11.9666699176966 14.878616404919159
Si 10.487666257396535 13.443728634928652 16.321632560089782
Si 17.032458883645486 13.809664407172688 12.289615232195704
Si 13.859138838874323 11.420684470558378 16.3142286493919
Si 9.422918431187059 10.504967089481392 8.534271620548642
Si 16.34281036371013 14.644291614659378 14.454605729482562
Si 12.033612496883231 15.91114373170218 8.798042701356282
Si 11.590554512288303 16.7381138924123 12.419838811434014
Si 7.84444425148944 12.135057716573954 13.681737909964095
Si 7.79053596235108 10.388355649193125 15.289469984385285
Si 7.571935714048934 11.09478316971378 11.613205776037153
Si 9.015666649739424 12.23549644889349 10.065050724904273
Si 13.286267354082813 11.525551549245328 12.921951977164426
Si 17.054253707115684 11.451292096885219 12.296120501800061
Si 14.265020848109115 16.167182471690033 9.757681536238195
Si 12.223817445388454 8.547411479361397 10.874331644768107
Si 10.991071070101063 9.502120230635054 12.684466544009716
Si 10.477175919697626 15.757917439948185 10.610702089757702
Si 15.163540522986445 14.19974778397517 10.85064711816394
Si 11.022992794216798 11.749256912945292 7.381294288463953
Si 11.771786867602396 10.367639307728354 9.340374397805911
Si 8.440104390353378 14.529635636635767 10.696873291546144
Si 12.698319922350436 14.833501523465914 11.108166747606154
Si 14.713739192099936 9.87429576869586 14.471512877820775
Si 8.699470400361657 9.733051209317372 13.159574205104805
Si 14.374371534427462 15.315872443855618 13.230579559222564
Si 14.17630069530993 7.6919273475536745 13.780197566398428
Si 10.293831631059145 14.964797030320494 14.551877432009405
Si 13.831575835030826 17.23533911799959 11.891120903001976
Si 9.904969595221443 11.203702107318481 15.979996624730582
Si 15.325564164267114 12.568772702537675 13.623571711124479
