44
Energy = -207.876904 eV
Si 8.709555021812385 9.36993629617705 3.475247829712528
Si 6.517364049860967 8.73168099020764 4.643102592086757
Si 7.447663564362883 10.964835362077713 5.071181644470637
Si 10.620182922245462 7.390531285801052 3.7738392975844017
Si 11.19254436229305 9.794168535163736 3.9975375161697904
Si 8.195958615980453 6.970890512666572 4.240677191793011
Si 9.654008642798214 10.399231541945422 5.835373227323036
Si 7.529633218134601 9.440819186534359 7.030708916532181
Si 4.2451872271362925 10.023565023913902 6.774489148906633
Si 12.665706332878447 9.574788124139376 5.990365218196748
Si 5.742802508745745 7.719588686766612 6.896897299649427
Si 9.529307422802374 7.971388110328914 6.038342991158818
Si 10.698775470739733 4.828485659311444 7.266931993880514
Si 6.360728394287587 5.381186770634899 6.666333273736457
Si 11.29914506727808 10.753140820207836 7.491235723793256
Si 6.036641354027413 11.541692593743687 6.992810635444807
Si 11.56386634192944 6.49699542093484 5.781385924996382
Si 8.602648873803773 6.054154032709348 7.177574369189999
Si 3.986615003582142 8.060867815852145 8.563718040898861
Si 7.44155644424086 11.032657006456706 8.817921341871577
Si 13.41970226438673 7.466207849054009 6.911049606373116
Si 6.336045826395616 7.857196689470708 9.433952676579159
Si 11.197922539267042 8.350795549722665 7.708256210625579
Si 11.921727877064717 6.300504434753275 8.751517105538769
Si 11.58312871878128 11.756088822769422 9.62938440393226
Si 6.398612631143189 5.399841324149004 9.064017309145518
Si 3.4554487910789455 10.292900613184873 9.053136367728488
Si 8.748895180344983 6.644288884572928 9.491503277345133
Si 8.211528919085248 4.457488472755128 10.314080608267155
Si 9.169979559933214 12.250294473314662 9.998250069059175
Si 4.475893884221603 6.342199325539093 10.195151330912791
Si 12.338830627210996 9.685223286575706 10.802772586578355
Si 7.779762451130828 6.025983389287013 11.990409569672233
Si 5.649855384819732 10.10361340414928 10.03297272451559
Si 9.986634953250663 10.042229044013016 10.597985438304327
Si 10.938968189598622 7.531450339056147 10.541013453167905
Si 8.367192785646365 8.381648990544647 11.206617518543808
Si 11.226961014416643 10.589325352049258 12.763953412928226
Si 6.59335010349704 9.643866596998473 12.167220455084411
Si 5.830591866526404 7.372351815106884 11.902544777229128
Si 9.127634599596366 11.655113744618644 12.319127347944647
Si 9.440307194866424 9.251544096172047 13.51236015651198
Si 9.823883554097002 7.057424052205446 12.775075449938946
Si 7.657399404318801 10.761964833982224 14.032123126296682
