40
Energy = -189.82056456 eV
Si 13.047179712538876 10.961586111788755 8.343490602842625
Si 11.545403370525083 14.634913017186097 8.275096016283026
Si 9.848649200256233 12.904937570296363 8.061246566046613
Si 10.705902621272058 10.711507349815129 8.2390809520913
Si 13.411612277508143 13.196966115007214 8.955070158979456
Si 14.87970062569934 9.563076660726304 8.948332775345332
Si 15.608883918144203 14.029765172956886 9.28786359495073
Si 17.538161581924374 12.748912267268112 10.180555877127999
Si 11.830069679999518 11.286608175332788 10.529070633979591
Si 10.037851984751558 9.610264412882023 10.195492086741128
Si 10.787992315927283 13.507053910777536 10.338810119372301
Si 8.406069261322596 12.887075642810379 9.953780025334504
Si 10.516059911109865 16.00157249837433 10.145631370424663
Si 15.462144506184874 11.595456657556921 10.04995891143424
Si 13.309350438954459 9.34303918809709 10.745462436760945
Si 8.431889011430211 10.914152755495522 11.425035133820568
Si 11.485222216035991 7.728002755219639 10.491258520244708
Si 14.230394665716204 14.72323599133008 11.209221365229306
Si 8.635681332138827 14.82727250356545 11.264428961364594
Si 12.068436522133648 15.350186879633515 11.803841552316689
Si 10.884913540724137 8.241522681863902 12.68677436670037
Si 16.41021142061449 12.234484349698223 12.23397510086081
Si 10.635258134560369 10.783817026485476 12.850744278052511
Si 11.640446407313352 13.126637003011252 12.987308739951851
Si 6.7930252985737685 10.104862944758015 12.960577236329259
Si 9.25694092720063 13.002593178742154 12.7133609812977
Si 13.822478418023895 12.39759878778295 11.77675791361755
Si 14.25100926566795 9.649827275658218 12.913404842728866
Si 12.655444184444871 15.104489583953285 14.114417143910442
Si 8.83802769669859 9.083818356594007 13.440234174005147
Si 12.357292473290315 9.22244669752559 14.22293654834297
Si 15.010412895416636 14.006045416985238 13.333952732948466
Si 16.276626133631176 10.453362568485222 13.909738754712736
Si 9.681454116504485 10.501677361137396 15.125795892161994
Si 10.913623250068085 13.736684741649876 15.286235138112545
Si 7.220750380928094 10.826354297084738 15.285184799919698
Si 12.22605361110926 11.79234878314165 15.346755574768263
Si 8.578717278158704 12.724833692378345 14.956878956190828
Si 14.296863051062312 11.821902351831667 14.1448454590688
Si 11.606888040580953 9.8021989432589 16.410485383774795
