43
Energy = -202.98312563 eV
Si 6.02005440302388 9.86955139770367 6.575550373195939
Si 9.311999651152435 6.587926661560602 4.441826187884293
Si 13.17394267141563 6.951722904888285 5.826668238354468
Si 11.307208147689243 8.028894874542056 4.725871739294138
Si 9.41257091328985 12.221106593306372 5.785426301968636
Si 5.950637362654939 7.7508914203949555 8.473858785394263
Si 9.196754703115554 8.196996603358299 6.091152865540426
Si 10.69518433415417 10.140876413168348 5.759317749842464
Si 4.346688621040679 9.661309779949535 8.345373361030441
Si 12.053587209609203 5.192176979446291 6.984844724827478
Si 10.517823379061863 13.150569184004745 7.749107988739197
Si 9.758601796687561 5.70171205247251 6.788195461064892
Si 7.861094447547018 11.220396916104756 7.355709829084679
Si 5.429345807350628 11.888967520067302 7.932217456856223
Si 11.259650651699294 7.540526153293778 7.446080287323899
Si 7.99380418768614 8.891845192888281 7.995305660072907
Si 12.089515024664749 10.039627530551243 7.657346970964703
Si 13.614193562959489 8.18679215834321 7.890130933472127
Si 12.236445059796116 4.602112015338041 9.383520211836668
Si 6.20620396888027 9.7824968188019 9.99563585338046
Si 12.731715336592236 12.024556880745461 8.82363458856856
Si 10.194757997696533 5.906305318043992 9.203160532547193
Si 7.265367485071152 11.917868029851228 9.554069893941014
Si 11.798827136340105 8.887517943358 10.865366757649065
Si 10.134919161731018 9.189354029062882 9.177242495268633
Si 12.519605243031695 6.965356490562895 9.616093776751418
Si 8.80525766384867 6.513658787053837 11.108433597608375
Si 11.983637010730531 14.280710238202337 9.298042550375266
Si 10.342031168109262 11.477874737775995 9.493270573200506
Si 8.486688994278364 9.124640490364467 11.015947819259464
Si 9.066926244644531 13.585052514947236 9.60075096461302
Si 6.6287040739362295 7.520451978534634 11.043011576317658
Si 7.481558837607143 11.396280346523518 11.942997319195133
Si 9.393834137986786 6.110017890066596 13.417661097897001
Si 5.239521884691604 10.432542535028889 12.17639871118021
Si 12.385071678998838 11.304751557403893 11.056634287072825
Si 10.326580088093182 8.125644204571008 12.537188033813216
Si 9.086105626685402 10.01537246579153 13.311269018811652
Si 7.71043192521514 7.846195110535302 13.37333653481479
Si 10.583845702738625 12.956396255103384 11.398113758680758
Si 9.09899193701321 12.482633798972227 13.32865364802425
Si 6.734720969977248 9.999667505261975 14.14866386375944
Si 5.350432430104443 8.115490360656365 13.091756259123791
