47
Energy = -224.47976655 eV
Si 11.660913993647522 12.351499471821278 6.61455207406084
Si 7.182363445202594 12.05079874090385 6.608150965784799
Si 11.750055992896868 10.17498256547884 7.6656283420086755
Si 9.339706855280005 12.945568265839393 7.03576124791702
Si 9.962210413526236 8.673323534566507 7.08108320533517
Si 8.578816085891406 10.543383321744146 7.852563106788842
Si 12.306940611214834 13.501615274939924 8.616228613825037
Si 13.945077503317012 10.261213878909095 8.579844588877528
Si 10.534852400265938 11.848402470733664 8.940600313323753
Si 6.738618147188098 12.683798639474452 8.888508548465802
Si 11.570355877170575 15.713720527385078 9.03032933951027
Si 9.673597810778748 14.309405188438513 8.932780342441726
Si 13.473398197191019 12.15513652803033 10.191679600919718
Si 7.519127056525327 14.54791328285924 10.106581195201574
Si 10.316793312820133 8.398074288752358 9.358774740977074
Si 7.322774021883471 10.672052709201807 9.883621544961665
Si 14.28979021616743 8.211154563755011 9.848723713768084
Si 12.06441743009692 7.393279569034531 10.476216895217268
Si 8.8479726391143 12.56424406271819 10.606860772850006
Si 12.462101879967696 9.8803029201996 10.51766868068435
Si 6.81225039504989 9.321020491020372 11.755473292981733
Si 11.704026508800844 15.13297641642991 11.361770960463536
Si 15.425739611217974 13.11089355301032 11.214149093650613
Si 14.422102767017973 9.114140370369025 12.016216000300874
Si 11.807610864687938 12.741462509661266 12.163317996090518
Si 13.81163200365553 14.271907230304286 12.632386905374625
Si 8.085625273675705 11.217873181619812 12.489072006887023
Si 12.9961292270632 16.490938626115717 12.834087935789052
Si 7.607776062106616 13.75130068536928 12.423368405017703
Si 9.086868850995131 8.659564985954303 11.369856977811379
Si 9.833338141559883 14.607679496997847 12.783142847902734
Si 16.605011648497793 9.287568978159506 13.582964226522964
Si 10.902109851346518 7.6721040532619185 12.5124252025884
Si 10.602529889942014 10.53526063504251 11.997800877621465
Si 15.08907474588446 11.33640933041207 12.75597057152508
Si 9.270996364934517 11.01338539647791 14.543024619587493
Si 13.01277484501813 13.16169971996392 14.634644244751502
Si 13.700901738178406 8.060089029866653 13.981434548087979
Si 11.409356376461197 15.54452168353208 14.355816503740288
Si 16.537407640064675 11.338904985889915 14.674748704723951
Si 15.771171350414152 7.45008686262435 14.92432728922232
Si 13.347461895190404 10.79700392120191 14.265846424875612
Si 11.234030196625698 9.697718513681588 14.18037032379444
Si 11.497960995798584 7.411742342532365 14.785612350351304
Si 15.072449869999867 9.61183935872343 15.602603359561805
Si 10.556922000032602 12.993673927041566 14.433092021958757
Si 11.617104276410718 14.148611190726744 16.25056575667421
