47
Energy = -224.28504782 eV
Si 6.8149757997626885 12.346566497402764 6.930505566242373
Si 12.104740859712313 11.970235791381194 7.1769580266036055
Si 8.799136116128793 13.20296645350993 7.866384027318489
Si 14.16501673090938 11.348151998619176 8.102641550359994
Si 10.997140603620048 14.098034679515942 7.485965491476304
Si 6.3445465551435385 13.560749083375077 9.05342757376222
Si 10.597715195024486 10.435845997222131 8.180288211916462
Si 8.293831735702451 10.729064657219533 7.847529788057835
Si 15.815390716400069 12.80412385688631 8.973352550221092
Si 8.503368673852323 14.289312485913818 10.075356695449281
Si 11.631734162589751 8.493770784731401 9.051073567592155
Si 13.902208399778766 9.289782405763948 9.284343589483793
Si 13.949869241990417 13.95188904135714 9.995579291298428
Si 12.682063476737433 10.620898404560851 10.98023621205772
Si 10.973393804745076 14.738138114890905 9.900127312710614
Si 11.967720303572337 12.514071039469625 9.539051798647364
Si 7.853456913156274 10.16797119080765 10.110636004811825
Si 9.549626320068919 12.035413982205545 10.018869487659378
Si 7.15803905272506 12.266595437325188 10.933787365295455
Si 10.37399850744597 9.782372011772212 10.943918482731096
Si 15.931953353165422 8.6683183478797 10.375555404390374
Si 12.895039275112701 16.1502422629114 10.391207926887743
Si 15.46693004473472 10.997381230378823 10.514028324822489
Si 10.831654851423881 7.321413847658518 11.031061529593845
Si 13.950503553310334 13.616026650406466 12.31643284344048
Si 14.498062970442154 11.28599339676891 12.646082067534511
Si 12.449850646651967 8.669185456302642 12.35561609619678
Si 8.479026052116172 8.299996309627668 11.55423784105459
Si 10.16770895839265 11.803926303631204 12.433036810008954
Si 11.48415583320345 13.883592271000282 12.128306281034414
Si 14.828326434193011 8.724008982038537 12.558485179508478
Si 12.840683479276851 15.82205329704836 12.832712129440061
Si 12.229652639861046 11.73714954868859 13.59824473220773
Si 7.796508139282801 11.94347894140275 13.202321434633
Si 14.57730293490775 14.96043686954337 14.215522402603932
Si 8.93460104164602 9.876436830118132 13.36416364112994
Si 15.4309023065594 10.60466858185271 14.794178332280532
Si 15.955811211987495 8.288490190174189 14.658940027270875
Si 11.944484710508934 9.500719020404823 14.541275044654656
Si 9.426035685736544 13.207145315181423 14.377815102609727
Si 12.655719340468323 13.675519433372488 15.027628573761573
Si 10.895976170422003 15.123085031995053 14.235925691428664
Si 13.890519625712395 8.7224034746006 15.797121775245175
Si 9.78260869209157 9.365694337925234 15.540165348444122
Si 10.532263540807545 11.61358316463647 15.740167417149284
Si 13.533843380150646 10.94486680709678 16.2308412124633
Si 12.190918236489813 12.627246461146228 17.167910514230652
