43
Energy = -204.0427073 eV
Si 11.614383591653816 11.21926961475937 6.605619742356349
Si 9.602137673763126 9.465142293897127 6.282424522564854
Si 10.562367000116508 10.000172926221937 8.460949462986392
Si 8.604443446839744 13.708664645563577 8.063055163512574
Si 13.259690434799946 10.167951410514519 8.060219715821242
Si 10.181075878357431 7.538932698487361 7.8011777008902445
Si 10.742682886225925 12.71348979386918 8.286270235103327
Si 12.285013458027441 8.097139497949852 8.647171006777693
Si 8.115501744734988 9.699361883673825 8.237519676945249
Si 15.509792087488966 10.907555447603484 8.853083456235154
Si 12.374630414457558 13.488027057558519 9.7660026102188
Si 7.746434330017717 11.808374686509927 9.14664935802241
Si 10.792313016746995 8.99082088879815 10.971961522100944
Si 14.631148179238979 13.095994955295982 9.486386707107048
Si 8.87779825585853 8.119338708660184 9.839712255394323
Si 10.895100673815842 11.429722622853706 10.425356991755452
Si 8.63258839629906 14.174889110686012 10.352697797690109
Si 13.163572922121213 10.389432587300739 10.477506079654942
Si 14.707911725489438 15.318255482534253 10.281789069659103
Si 12.990834361114674 8.020291872690859 10.88640262775254
Si 6.774395496734776 12.814969946838598 11.040463981888337
Si 15.258337480285384 11.266919637928016 11.258384728465696
Si 9.724986461164255 15.87053540485459 11.499876052166632
Si 15.566702823241457 13.620018066872198 11.788224480600547
Si 12.158345960502482 15.363677967559504 11.21423240883802
Si 8.740699043276118 11.29840781784314 11.532882247375271
Si 7.865203503255894 7.195691993100263 11.828397380476826
Si 11.90787375115482 12.8932472196253 12.181243767179447
Si 12.188573479167191 6.588415083691619 12.681095623940905
Si 10.003270362571918 7.598335605365015 12.95242953494567
Si 7.6659672099093035 9.450317090692401 12.679247109688912
Si 6.69866142048751 11.639012528092055 13.255892646394825
Si 14.54486485581006 10.201850589125474 13.305843731378502
Si 13.903141182947913 13.117647791178111 13.395085679445918
Si 10.347702621688407 10.137578531979958 13.144515166412818
Si 13.131613748711258 8.411122080649635 13.832890898123702
Si 10.188113739942317 14.268523115237997 13.162997021746945
Si 12.427828836539788 14.976704021302513 13.575094090435236
Si 9.043040337210057 12.267795603856163 13.772158202692502
Si 8.916610230820186 8.880719188206887 14.671726641841323
Si 14.332813605860908 11.612019659405114 15.175389991641804
Si 12.325669766011455 10.383495141616987 14.675581625532727
Si 10.061750510540381 10.855754634551792 15.509978191240265
