41
Energy = -195.11700166 eV
Si 9.174801735724733 13.243912410023793 14.94114388518898
Si 11.466042275451311 14.043301982239099 14.788280185080593
Si 13.426308788663306 13.031489987058643 15.759912444485183
Si 12.315843934565976 15.925114463210154 13.691825077955915
Si 10.666339615235296 16.275477070417512 11.971494924891427
Si 9.394539657134475 13.437752939442507 12.534778771140276
Si 10.451389804739337 11.22603274027503 14.684498355659613
Si 12.447815113021603 10.887579675782424 16.001196245119644
Si 14.670171351906628 15.113603201297382 12.996067397983344
Si 12.512725273480408 11.888410282113737 13.676261437894148
Si 14.733652776424679 12.74947581380886 13.757528483447325
Si 9.017495348232636 11.597189259954373 10.945830989772189
Si 12.274792932008088 7.804484442776074 14.625494137314472
Si 11.872894369150233 15.61103093322289 10.112800853876006
Si 11.687875244798603 14.042953266183975 12.19283813380869
Si 10.544422073473909 9.08688442660472 13.625301649939173
Si 13.71241807108157 14.4032945691774 10.975052052994252
Si 13.834508736845116 9.703116335218196 14.579226460006605
Si 8.292350992517203 15.580361758198027 12.150812400521588
Si 15.922036535749001 10.479805505357753 13.624805441877365
Si 8.687863184673937 9.139971624586918 8.274421948773908
Si 10.987841155609656 9.12828102677943 7.579925461257091
Si 12.523185749266707 7.64259560143325 8.653314195990696
Si 12.016382412439699 11.234148765470096 7.704984182588736
Si 10.260793504007014 12.78396030717323 7.169174037032446
Si 8.618233510731471 11.509390260365686 8.368088242044271
Si 9.320310168886843 9.169458968402726 10.613784518721303
Si 11.244203039376309 7.412436025120387 10.725723702254873
Si 14.379603528410193 11.33712461645664 8.00079082980672
Si 11.571008541033402 9.71245259864814 9.875150016818115
Si 13.999832888104304 9.40695929637993 9.44126695136453
Si 7.004259967436687 12.394202501966921 9.826313952287263
Si 11.37828886233534 6.201434346254841 12.777484932448191
Si 10.22627520670757 14.607936630276038 8.72760624638504
Si 10.876454848289942 12.46721973877244 9.597124492571908
Si 9.223263052323576 7.57061607206363 12.444010913470418
Si 13.38318994071094 12.420142479580766 9.827965875704727
Si 12.69398719753029 8.42537975483031 12.364838763148533
Si 8.394181998092213 14.303275198066789 10.195503379342892
Si 14.817564616843665 9.235911033981898 11.706390350975726
Si 13.003796564516994 10.79477665855758 11.519932245586684
