49
Energy = -236.09622107 eV
Si 10.30787585608806 10.947346909380283 6.544653494538747
Si 13.749715182779793 12.923498803790713 7.624992933601961
Si 11.74746176058444 13.894193967660911 8.3839619505935
Si 7.758491238331712 13.433515457621464 8.920607587795763
Si 12.51573836309959 10.924473835420915 7.45900066465735
Si 9.923420322206713 9.419427839135464 8.322120191880224
Si 9.81320614215747 12.457757556026746 8.312519640590168
Si 11.50851731497373 7.582216265558894 8.641956861392874
Si 13.42751425785124 9.085748114743673 8.592099613928236
Si 7.878521551726969 9.228861007509108 9.626535051524622
Si 7.454903930690685 11.555990197381437 10.383518561858095
Si 16.769191806548335 11.58310682990669 9.98858027002657
Si 12.17749277948091 15.428281781101399 10.057051644383534
Si 14.901399507026095 13.153378779420507 9.703154682088272
Si 8.93538712356075 14.345666080731128 10.766267869439622
Si 9.818765625861632 10.77111935278095 10.382371816828881
Si 11.665921318631701 9.300767673580953 10.384386664731387
Si 13.003140569169096 11.566010375161149 9.77254717743226
Si 14.580112346852307 15.52166805861501 10.200373450273638
Si 14.873536070938153 8.392770829349407 11.960267144372809
Si 10.242130662596063 16.337154256158676 11.102960004415982
Si 10.987830542230542 6.94897671031193 10.953398714421466
Si 11.216692689451081 12.891375282294726 10.784386600921119
Si 14.972378825034365 9.987982336101389 10.181923741396474
Si 16.14774717141289 11.527120564135426 12.293342365656098
Si 13.857161741081297 10.64091630550266 12.488409947630114
Si 7.512158008275344 14.352476347243279 12.732517701960587
Si 11.421476462055894 9.94061242605808 13.58547392672929
Si 9.26541097022441 8.519674038628766 11.442078434966913
Si 13.315815792121933 14.08896996936004 11.822921627053029
Si 15.814763392646102 9.683397469013759 13.775813983555022
Si 8.94670907647205 12.342365171399228 12.24827730375224
Si 12.56322511564242 8.098847088000024 12.37730599205964
Si 6.465701727498583 12.120101838342174 12.568830771483087
Si 15.074449708447835 15.69651611594615 12.663399430833794
Si 10.968767956039917 15.42500834715863 13.151486870224607
Si 15.13422619257945 13.36786171428754 13.2108126396248
Si 9.117694521071966 9.130864480012379 13.686850258337719
Si 9.428936412712977 14.061494227768733 14.174769502613017
Si 11.279715998664825 12.504734495390448 13.317273421287902
Si 13.083544330708671 15.43627042655425 14.070682502682342
Si 13.749691453993655 10.07159780561169 14.945864021134101
Si 8.011354701565532 11.132970491228988 14.101612453308736
Si 12.555358820922764 7.977502185061458 14.787307571567064
Si 13.25110820400512 13.10435859999877 14.650784649389122
Si 11.039630932122328 11.135140150018362 15.748287423776016
Si 9.05269361179984 12.415831549065938 15.850209935114211
Si 10.455011956027818 8.776802971285084 15.601012787532813
Si 13.193806890754885 11.702783859902913 16.590545081352985
