43
Energy = -204.6875329 eV
Si 10.871156000821124 12.315614709665395 6.275644279422526
Si 11.60162952251377 8.934678612865724 7.511206569573463
Si 9.921727679241961 10.53320127027844 7.582797532544765
Si 12.557793778674284 11.099225241916566 7.497643472221705
Si 14.985619581014236 15.823333146641021 8.590178636011833
Si 7.8065257580467255 10.156904983982095 8.606585475367686
Si 14.822530846780923 11.332034368737869 8.231130415224237
Si 15.23299768345241 13.486716715121723 9.116951722666048
Si 11.25692441178099 13.402419532494537 8.332283969635576
Si 12.943669133081643 14.794508885552075 9.148654869549514
Si 14.999461004500292 9.760030246977344 10.128149940810545
Si 9.087225780960736 9.23852034739604 10.452791614324829
Si 11.249010694462381 8.627284516335719 9.81639516604488
Si 14.572653262819205 16.73327352313634 10.924385308496285
Si 13.049501835946304 12.262656482799894 9.667373043271176
Si 12.958952467086922 9.457640699336515 11.2087806380819
Si 8.342613710615673 11.706623506250782 10.283404790434195
Si 12.655406435231203 15.34976738984947 11.421102405404898
Si 16.143187173881596 13.125206548837767 11.287853051644246
Si 10.228210085214272 13.066363502053116 10.434588525911874
Si 10.966717260563287 10.85455195843834 11.002894626988319
Si 15.117369211321392 14.937855146350598 12.339573049343826
Si 7.489406341636703 11.351597209591617 12.49424061946269
Si 13.565682486814648 12.950118060946597 11.919551894829398
Si 15.464000158009375 11.034825293555581 12.020966183746879
Si 11.106273084462561 13.879085779213142 12.516754470271657
Si 7.900866978831669 8.994947842775868 12.561056748160494
Si 9.17637909669912 12.73884118138223 13.857347618455666
Si 13.386608974361872 11.723014030510626 13.954520695786316
Si 9.831466625720907 10.519683477212986 13.065667099970499
Si 13.222247860814258 9.267961033689339 13.539513019414429
Si 14.409625209392143 14.093773980609463 14.390130840514479
Si 6.815471596954396 12.74411689075396 14.258970208649213
Si 15.421329968509 10.12364896973305 14.230764558934412
Si 12.081707082713729 13.998408213395113 14.69207016560729
Si 11.289332806711219 9.558770934519016 14.829105656996324
Si 8.954535043222014 8.851703482314836 14.678197978540565
Si 15.236464955735103 12.220172560974635 15.671559026661852
Si 7.985944596701114 11.032482772613106 15.501515120291462
Si 12.905406080378837 12.128475857255554 16.33711616998028
Si 10.03182585523631 11.980751125274288 16.182250794514903
Si 11.309205152150405 13.924957946442847 16.869379858134284
Si 11.493818697342007 10.332733992626316 17.017434138511124
