43
Energy = -204.28530671 eV
Si 10.102925259453256 10.186236311089717 6.368985338499771
Si 10.176759095397983 11.904689911383544 7.947469286622659
Si 13.594185585519654 13.685328736219075 7.942320550902964
Si 8.302956193559371 9.985565162790204 8.083475615457118
Si 11.79884848267147 10.083664510604237 8.055786570550671
Si 11.184960711971847 14.156286118091478 7.995223487693301
Si 13.838599602172797 11.286015358597854 8.323626991269778
Si 8.488878127774614 11.603371465444065 9.882182745813811
Si 12.510689172819749 13.000214470782058 10.075202673434712
Si 11.521285093444872 8.708073313329226 10.021906023417014
Si 9.241386045227829 9.244334438129528 10.25329163428054
Si 14.84155418239764 14.06104010873823 9.982550186212947
Si 15.603854721067227 10.12403276476359 9.309786102178196
Si 10.613296619036452 14.80915741632841 10.19172771497875
Si 8.570637876790755 13.801438624252986 10.73339425301193
Si 16.360172790688694 12.230324669473605 10.281739877286569
Si 10.930925073023694 11.164740862126434 10.26441118641052
Si 11.352438136403466 16.62213475805708 11.494868791572316
Si 14.155136592608502 11.258222748778081 10.836751952675456
Si 12.763694106956336 9.665461310514422 11.827184355743958
Si 12.87136953955033 14.785117802831472 11.844006024238487
Si 13.101406972348803 12.964650332306592 13.321683562871673
Si 7.545843058964791 10.101937058222362 11.652915672466245
Si 15.233528235138474 15.225167084814492 11.99272368174573
Si 9.783555726757104 13.12543108780044 12.691626369799296
Si 7.614869087116952 14.58555480160626 12.817960795568286
Si 9.856891063125307 15.554176059694877 13.031912864471167
Si 15.43665515960241 12.832653093464963 12.486745393927562
Si 11.418017228306724 11.239652917831672 12.961494834319097
Si 12.662385839284612 8.82583207718845 14.080854906748668
Si 16.145052836024572 11.554315803373441 14.384276177058156
Si 8.941447004857059 10.945261770120348 13.445564381201486
Si 8.231889700961789 12.94243927248871 14.647800099907288
Si 14.350451703339601 10.281217381056834 15.171072314195857
Si 10.284825386918408 14.203792942506858 14.87948315126035
Si 12.467979321841078 13.51648157108868 15.546540724863133
Si 10.504043896055844 9.741999753112735 14.851841424562462
Si 17.5448429001638 11.525282265990906 16.39732188217611
Si 15.441668983762414 12.617724421749251 16.38990213369374
Si 12.100431852228322 11.17740992568012 15.730870687024643
Si 15.659412571205499 10.154949435475237 17.174965382465093
Si 13.747630711207789 13.740078840075125 17.56757109740377
Si 13.62286609992677 11.29878958970119 17.57922944769407
