47
Energy = -221.87180412 eV
Si 10.381875966447472 9.673906251922897 4.846569416456751
Si 7.919312905231865 10.07014626680116 5.789365196632896
Si 11.13498308523984 11.3469658028779 6.306703016474276
Si 7.065406378405068 7.783492420275822 6.082013070777767
Si 8.875996313291134 6.820979546976336 7.430156818514866
Si 7.744747144234094 12.612139502543863 5.850616378333158
Si 12.605299009683371 9.00000989821662 5.825076122265691
Si 10.097550756572444 13.443290514266968 6.208471860261321
Si 10.251837806792334 8.688302260408769 7.013148946576472
Si 5.457978377429463 9.812882070902905 6.5425943786080465
Si 6.659666542720872 13.117144651722622 8.004300359818656
Si 4.760530462701775 7.5359397347316355 6.697684096596975
Si 7.9526182036786475 9.270973319963874 8.105759038923928
Si 8.951404378893127 12.217938055911628 7.993830668302393
Si 13.197454749296101 11.07692094470307 7.406682371758301
Si 7.936254022904745 6.877338520531732 9.640284146747643
Si 14.046670585296107 7.521176096828323 9.099408486832914
Si 12.495084369596938 7.069101810416259 7.324768333865785
Si 8.282708693479588 14.257473652033969 9.440090543294117
Si 10.543623570327798 14.190353435083049 8.478383251552465
Si 6.129414393422699 10.840456089820636 8.630688571444118
Si 10.805668746717433 5.959390879741997 8.745521829269153
Si 11.990506153768361 9.30407736315538 8.471785209079403
Si 8.682128498789327 12.586055998399262 11.106753289994872
Si 4.932932775703153 9.490087730141761 10.475033667620357
Si 12.813285618078147 5.849538051282212 10.366424277313438
Si 10.100255954754745 11.214718415054788 9.800258973439938
Si 5.946537927480099 7.992132810453739 8.731246832145187
Si 12.75827081000299 8.84668165217899 10.706131200456012
Si 8.90754701220075 9.206116580420018 10.35857119679792
Si 12.603737872514865 11.12764249298384 11.320016921427728
Si 12.132933524898869 12.355277686371862 9.27520645541322
Si 6.923541146982039 10.99743770774971 10.971010221732106
Si 10.558347299844844 7.501511149024112 10.65803983004844
Si 10.693503523036481 10.539261325356653 12.64571314869841
Si 11.203623414120788 4.028846696481667 10.035973466416781
Si 9.312221123283047 5.363554213031606 11.011095766918771
Si 9.020325355617468 12.14031117710966 13.438197964939834
Si 5.544772858793691 10.346230416412032 12.795255190456619
Si 12.920149305429735 11.244595943317163 13.763927709052462
Si 7.897244399933973 10.032807594833347 13.306009889964482
Si 12.164435484613763 8.955122023107974 14.017846566688485
Si 6.96169418147102 8.446313330924355 11.612872634302793
Si 10.181034670812776 6.538168850588603 12.905700185980978
Si 10.768748459513068 11.51613165589633 14.949955198357953
Si 12.461568886120997 7.074161373427858 12.395582736060334
Si 9.801104591684538 8.693433347427442 13.99581187519754
