41
Energy = -193.35487114 eV
Si 10.560444036513578 14.74227889420018 8.937444548535403
Si 12.153809299329804 13.231957978159363 7.419830553606115
Si 11.251477060431135 11.060037255782413 14.477195944923587
Si 12.556497540455707 8.937863425327793 14.60374655140141
Si 6.8722516927499075 11.76955663948356 11.596813232049714
Si 8.022767780592407 7.822966156038674 10.940340664355492
Si 9.196231699616582 11.417362083397407 10.776358714346618
Si 6.445927496507098 10.98798037286965 9.275599952903645
Si 8.318145770832093 12.383779091300772 8.640996869986548
Si 13.54952633965383 13.0702136108774 9.4872547952976
Si 10.267778258121565 11.726466534704464 7.390717793716537
Si 9.44394847094506 12.755433723984613 14.46603695361896
Si 13.704779279341759 11.341371503340289 14.382469389239603
Si 11.122868782638871 9.571817086635361 7.793129958912806
Si 8.20846755258783 13.732239860853271 11.047238477208602
Si 9.774418798339015 9.318309457335475 9.822030462271512
Si 10.330853831095787 7.214255360884091 10.938069424472328
Si 9.491848861090196 5.951399708589096 8.58280122238635
Si 11.527056446674973 6.989267590505448 8.801686941974594
Si 9.30392802421191 7.980660683186269 7.370334226292329
Si 9.650202714431016 14.56657748619003 12.74408154198875
Si 13.776965299160384 14.443867809425448 11.430032059787825
Si 14.566286751247684 10.171038034040503 12.073107157681886
Si 13.853607991959624 7.230218629233265 9.198106390121211
Si 13.175913807334885 12.258507674864456 12.23461252255079
Si 13.3553973239918 9.524140499772153 8.751921157854532
Si 8.122340253197537 14.749705621760716 8.839263215522609
Si 11.724430036453297 7.267670779058829 12.920303965623196
Si 14.938757558530098 9.302723237708012 14.33630448419883
Si 10.688266327833004 12.301215468739322 12.376588320452914
Si 10.796814834915333 9.497636114174872 12.613845596832496
Si 7.392235043329397 11.41659358170588 14.090619329951476
Si 7.540515054174487 8.836078154481887 8.868120838820966
Si 12.291060199820256 10.470733611545636 10.798010276665197
Si 11.406485884596625 14.418839006618668 11.153366546571457
Si 8.2396947422579 9.757112932858057 12.347488627677544
Si 13.240280327246799 8.249784552445027 11.303191582964722
Si 11.229559407664924 12.32849352736253 9.585795646198788
Si 9.061344527219847 9.665521861499023 14.575245746556483
Si 12.763392450256216 15.349254836352303 8.24570392787045
Si 14.943715415546272 11.047488072317801 9.634137229864958
