48
Energy = -228.56225354 eV
Si 12.807403849738538 11.559101280481377 6.036412215052373
Si 14.77248383455532 10.10233307114972 6.0651397562418765
Si 10.90511356325611 10.32911957680593 6.843143340203046
Si 13.07975258190629 13.203038763283837 7.835300506643119
Si 13.0511145161813 9.605922862207384 7.608124277255035
Si 14.915950924721292 11.665783779605151 7.871904267530275
Si 11.048608027284498 12.090848119524667 8.410204538964187
Si 9.527068850317232 13.438501836448443 9.642112070533162
Si 13.36801182616262 15.308665518966613 8.894879707115171
Si 13.130410252029236 11.374244416805958 9.71889948260946
Si 11.38114998135189 14.918991081972313 10.219698113861776
Si 13.225916738150747 8.993499714456782 9.917681297587757
Si 15.456727047208998 11.242922488093951 10.221407530433583
Si 11.171281029858633 12.094934883704441 11.022662713457391
Si 11.358441379692167 7.915028854127663 10.933389398655345
Si 15.573423207580943 8.876529858142655 10.501159942033931
Si 15.033260702255353 14.783268183108172 10.632283506687303
Si 16.651131743802267 13.061755577555898 11.126106217000903
Si 10.164657779886328 9.945733220881616 11.484687572209403
Si 13.122407231897148 13.584860388166284 11.297489190349602
Si 11.770023537215684 15.786841415945458 12.324788316598559
Si 14.465174079158421 15.925051574875257 12.617664372009893
Si 8.692659209128644 11.976262723784298 11.426053723485925
Si 14.790375343528174 9.427656414333192 12.617597214803885
Si 12.92006315199799 17.72208277641296 13.052130078387735
Si 11.9585166158102 10.849302087891042 13.664618456792722
Si 15.816450999944854 12.489604838664532 13.25502794506628
Si 9.514088654967885 9.634666354890737 13.743004098967425
Si 10.8492638293942 14.396391094295621 13.968487773754516
Si 12.588860875113214 8.67809895306522 12.898588926632652
Si 13.577004096375452 13.446312995525458 13.680667380844993
Si 9.748228151418944 12.138567596234457 13.629303698127874
Si 7.175534249387683 12.6873416949467 13.188633297709837
Si 16.072528224557264 10.367325687635303 14.38084157125465
Si 15.693709793120444 14.6954462112871 14.243860132535993
Si 12.267590308706906 16.43073125200845 15.05104398500791
Si 11.292550150708793 8.748681511970878 15.038701428025771
Si 14.006417550892559 11.259038634870906 15.074455718857836
Si 13.91475904981167 14.973696714212537 15.7709487784031
Si 7.769136723207791 10.877456485539957 14.714006628473943
Si 8.545989935239644 14.15008247559287 14.559639864250679
Si 12.2383019000364 13.032978026692833 15.59867646134242
Si 13.301731369047648 11.596442859914395 17.382193982705523
Si 9.286588491006816 12.107727777642653 16.147534096924772
Si 11.297589373756939 10.819077300593412 16.30121109696385
Si 10.885990610040798 14.993241502670823 16.401056884484458
Si 12.85401505849324 14.086271251202806 17.689076134659913
Si 8.621598459150807 14.267593170866043 16.956557167557484
