49
Energy = -234.60791529 eV
Si 12.827220223122142 11.627670622856137 6.756180300725677
Si 8.540082512326611 11.28465523797646 6.962030732096792
Si 9.237359085163538 13.622605405109816 7.177395531014401
Si 10.924029806270445 10.297554878683513 7.512682631278106
Si 11.561448900900801 13.373195795399093 7.666651445154489
Si 11.163572558735446 7.943061679625098 7.998630638122837
Si 13.753914714932359 11.717467509292115 8.9697340391864
Si 7.24799645096979 11.266670461859558 9.07403862470756
Si 9.894078466555612 12.011210664396911 8.90777432839817
Si 14.468136668039033 9.629379595347052 9.812113951458173
Si 7.339384293124754 7.274330273068872 8.864630440772792
Si 8.65193351685177 14.279692963374833 9.386245664538134
Si 15.319887846110449 13.407023640787463 9.871595270548896
Si 9.40470813314241 7.850710374296276 9.649352657872855
Si 12.94767764533258 7.852438220939625 9.69789551860854
Si 7.212451683359159 9.166488705133888 10.169809521047263
Si 6.607091759330831 13.350151823538745 10.101525458292478
Si 11.756188237925988 9.991142195244088 9.810206624547469
Si 11.963382600675756 14.608877554652993 9.640898801437215
Si 10.111128828248317 15.653263393477538 10.571606788204845
Si 11.953963895661541 12.30529503471428 10.602999679489077
Si 16.02676330336032 12.13293541055179 11.779745242759766
Si 16.470689035922447 9.800111684061608 11.1839934816292
Si 13.973594069895782 15.256986569209475 10.682778639356236
Si 13.772133461095438 13.071369607064925 11.825297564124686
Si 14.167795677844648 10.305064949369457 12.154454503288346
Si 10.728297795156468 12.014631694047 12.700521022151667
Si 7.843667559157555 10.29580776521692 12.13360973621585
Si 8.709353032541232 12.225493284256975 10.933033153812211
Si 12.359792489523118 6.567632747464422 11.640067266758802
Si 10.861827828075512 8.466439273707715 11.439949010449528
Si 12.924603996598004 15.29695230623886 12.93823656513669
Si 10.56634560920023 14.589694429715966 12.667847896737866
Si 9.896772466147429 9.77755404951803 13.141326953927669
Si 7.266267758409198 13.490006159151877 12.465138267959356
Si 15.785877533099384 8.75008556264796 13.289669705074635
Si 13.463687533442858 8.135480029497144 13.051357594370206
Si 16.38626417243973 12.925530539096146 14.050631250246324
Si 12.791804453334487 11.442628811752677 13.976013559374168
Si 6.815011326150104 11.61548325913879 13.840993622572126
Si 13.999597046653447 13.547192664970153 14.208457123330803
Si 15.427366065780612 10.78700259511636 14.433670963633437
Si 8.53583977366805 15.018303203189875 13.867739031591217
Si 8.87402231445228 12.727192567830144 14.39000577413146
Si 12.337386177104555 9.161828076047662 14.846602411567728
Si 10.690943869795886 11.68681498317153 15.516001280844097
Si 10.064521790319542 9.343324459565022 15.488578718233905
Si 13.804899068330386 10.523589834329925 16.09861080191831
Si 12.72737024221798 12.690110730792265 16.209803487797387
