49
Energy = -233.65545844 eV
Si 11.881193864188463 10.081987504682303 7.09069247357176
Si 12.599833046125145 14.249723035416991 7.023959028865575
Si 13.320246249715574 12.026482845577267 7.488591875745795
Si 10.295214713261336 14.006760746031786 7.726772237706766
Si 15.597060141506365 12.296546122929946 8.230058453634767
Si 10.627158297554173 11.48136786414595 8.603233427474706
Si 13.534532074382037 15.287350286106157 9.017671701076544
Si 12.557884278119333 9.72893313335228 9.359183241073644
Si 12.054346472086513 13.30381038059597 9.260324977367873
Si 15.30308571910482 14.047248564649456 9.866368646205338
Si 16.6769544281727 10.51088829671582 9.501716629145927
Si 14.183712009966635 11.372446451822025 9.988719333646051
Si 10.556491585282664 15.277948902329499 9.734014374996237
Si 11.979056625326939 8.329141593110416 11.276027604320996
Si 8.854758052107387 10.901564121972285 10.16178537559739
Si 12.294630093508975 16.920794190449666 10.200882371759828
Si 11.230562830915828 10.819486543139757 11.05219962178663
Si 17.1531172789719 14.501921542982174 11.251782770808138
Si 13.369558920293542 13.276931512805033 11.318590990879285
Si 17.129016467193576 12.178657005110818 11.18504858138136
Si 9.604559890928295 9.081975100639523 11.60408753404524
Si 8.863464453224301 15.15654067716791 11.362553393197661
Si 8.814607654927821 12.819617452381632 11.607762091088397
Si 15.436724442899122 10.101351436712523 11.602160227231048
Si 12.736010675900559 15.48293114006512 12.102717435843207
Si 10.982579616621772 12.31414815766101 12.929254558649623
Si 16.79126676401579 15.488670610760199 13.501425920383971
Si 10.632283696287388 14.779400102389886 12.911478695331587
Si 16.699748016801596 11.26386570424585 13.342515788473206
Si 14.446181825421924 15.009436492701237 13.71236701793409
Si 14.366871827110453 12.370503973010662 13.439823094932937
Si 9.658937170583938 10.076922339878502 13.796418680013662
Si 13.414264240355967 9.622471058615476 12.841922108171635
Si 8.411733623813927 12.2515643174894 13.863755627732738
Si 16.431917625225843 13.342993838907912 14.4485291359629
Si 11.855544876446697 10.534066379069818 14.380569742237316
Si 14.81155308430229 10.303081898256815 14.729775436631417
Si 11.619993703364372 12.84815411826816 15.403620771050392
Si 9.58935835983843 13.99517354466881 14.910864725468805
Si 8.084579647195962 10.505076657107985 15.491710290247955
Si 13.362951516938265 14.359224295656782 15.757329961069985
Si 14.877542540847774 12.593855979215792 16.078771845794726
Si 12.133351341841076 10.881088929396928 16.777600179794184
Si 14.55850332402867 10.48434683514352 17.11817976235813
Si 9.77290359441075 11.394533150509288 17.020100171722923
Si 9.88122222195167 14.22277464214448 17.29355281990805
Si 12.075569410839229 15.082753909276374 17.692819907721873
Si 11.80559050628634 12.835404534370745 18.330088872863108
Si 9.491394091734538 12.607704972289133 19.02024337902204
