48
Energy = -229.06712269 eV
Si 9.552327251631848 10.199229552760578 6.338468597689008
Si 11.09350048368283 11.829852272726898 7.039089146509742
Si 10.779362100009449 14.194046613175171 7.152973092756019
Si 8.439429326167417 11.922900009060632 7.5643640611797425
Si 8.444589270431214 14.310012905971393 7.831430965190518
Si 12.938156557502394 11.182685298864278 8.232540113103454
Si 9.849049850685835 9.060315121317624 8.499600675695001
Si 13.443811760575317 8.839044064111881 8.356451126194981
Si 11.520000631048871 7.469328850303704 9.07559618288572
Si 14.186779050986015 13.278233440452965 8.197263134477003
Si 12.268082680535954 14.523705155863434 9.002246920611075
Si 10.11336675923919 13.159121858457201 9.309954055604237
Si 7.816270565864371 8.95963332504896 9.78087006077089
Si 6.933541910279973 11.076249631563767 9.11362305458554
Si 11.77680318886093 9.8777793986719 10.088796562309998
Si 9.31096069922986 10.977903629957687 10.03407234609531
Si 14.591221408488343 8.923454911347065 10.393010436830783
Si 12.558795197050385 12.433485906639465 10.37430875883415
Si 8.666979470406103 14.613717181327184 10.684245738146108
Si 11.878369963371211 7.863055147914383 11.456737462391507
Si 11.176794341595988 15.780719961212881 10.74537706616949
Si 15.16052582984796 12.839478859918586 10.338783351121513
Si 16.095768905262474 10.693398812836335 10.743620625118062
Si 7.291503395402085 12.556790471889757 10.902864374619696
Si 7.811666003546922 9.246836080046773 12.144285231808071
Si 16.28964355678275 13.836712756972993 12.228393193598231
Si 13.771435845005339 10.627011993461073 11.87863328724532
Si 6.4519861657930555 11.19546786461862 12.641386120917913
Si 13.926045106322364 12.984028721429334 12.507350341748893
Si 8.948303380698457 11.359976855379514 12.433952982882012
Si 11.29429071681377 12.610824048254793 12.645163554765624
Si 12.423488944773885 14.90766912889004 12.684464345795986
Si 14.121975819754804 7.584914089390888 12.28563037739179
Si 16.0381236143047 11.514140044938987 12.92956065999099
Si 9.087716226757845 13.719881709234377 13.044275996067034
Si 10.608882126955802 8.118826310132622 13.423060458060926
Si 14.654651359881495 14.919579498079187 13.860812378321755
Si 11.574000700998688 10.313999725229499 13.697677629116964
Si 8.342906000989018 8.005738967258926 14.097835279125695
Si 7.733210971276511 12.202476644182685 14.477734277801645
Si 10.926010484578702 14.308676447934147 14.483932709005975
Si 13.943622195557099 9.36043853851822 13.990087977744677
Si 14.288298744156586 12.714539938561735 14.990297298259971
Si 9.131353189063967 10.242193659351019 14.695499301034236
Si 12.01966909208447 12.308720195078413 15.171559473602654
Si 15.62988101368945 10.70330948633158 15.099826816734943
Si 12.193392460852301 8.376607526133485 15.290403337050375
Si 11.006256663365166 10.376088371355555 16.144690045197954
