46
Energy = -217.00887971 eV
Si 10.24139378875511 10.142125445697738 4.428370359002347
Si 7.160021383159665 7.378634496751238 4.567413263428851
Si 6.007294280869127 9.43449997003217 4.014948582043868
Si 9.097392452828961 6.062587150752714 3.925494100984784
Si 6.3124953774275285 5.8558493541406325 6.124633550448398
Si 8.064893871290467 4.25466458311913 5.271075866991616
Si 7.958842414376571 9.902625334418149 5.351781546661478
Si 12.310266190868244 10.046427306536826 5.885589915734757
Si 9.689466973872296 7.9123370764341425 5.31177077074365
Si 6.140567069432555 13.327452781330912 7.108523054031644
Si 5.326803058502332 9.397136720470483 6.347305925518177
Si 12.88917581561283 8.139596177301055 7.4963705140975945
Si 8.332982432760849 5.697348943749374 7.515713613652003
Si 11.635027844494035 6.257829722664102 8.330430674124326
Si 10.325339995581173 5.288237530007371 6.297475604371477
Si 4.7792671999749965 11.364614915961052 7.625949504852498
Si 7.200889898279067 11.142022270107239 7.2119602927091275
Si 4.984052073188766 7.3175651637577825 7.45577976505526
Si 12.406119574741194 11.725649426411612 7.820540834957679
Si 10.478850539369526 8.442679520200347 7.508774816095335
Si 9.218961896941458 3.2820199226141766 7.333772142057963
Si 10.165831769954114 10.697973634254517 6.895923520047297
Si 8.108811805506537 12.911814101230439 8.721744367629277
Si 7.469167786011324 7.931833888526018 7.169412465475804
Si 12.225155523571928 9.719042910570456 9.1630588765857
Si 11.22949867725047 3.8664829785157258 8.60263754725544
Si 5.186742447777446 6.3986206972060105 9.639691450317317
Si 7.634651325939733 10.226555906177511 9.312925594169299
Si 6.090815849145973 13.798948962540402 9.556785073355545
Si 5.310463236922121 11.077637368071413 9.988575727704063
Si 10.290725626262027 11.89043293354682 8.968934471746698
Si 9.141804373116235 4.69473343229053 9.519942144525622
Si 5.956500858001458 8.698231590022479 10.046157684796762
Si 9.906626257401118 9.761617575115817 10.10980576149445
Si 9.502960563447143 7.264786171274553 9.402165640932566
Si 11.8341687334558 7.012121654797254 10.635959925342899
Si 7.381697073224991 6.7234802651745005 10.55258486424002
Si 12.166264033893471 9.212530396067612 11.530330540648663
Si 9.881414598907702 6.661100526879795 11.82374943413096
Si 7.319335406662938 12.003830342668538 10.92265971810584
Si 7.28155598112183 8.693523310508924 12.281080691042913
Si 4.6696749022408195 7.357677857490258 11.802201870886353
Si 5.1137185589984595 9.773965851978625 12.17767227506597
Si 8.284423164859808 4.842757459568952 11.858920521943622
Si 9.748851982309827 8.98833577136205 12.440717162489864
Si 6.615254331828207 6.496279601840826 13.018906972642528
