44
Energy = -206.71558196 eV
Si 10.152870989764471 9.14795101316034 3.779041603720203
Si 8.142997341839385 7.94436689615003 4.4743279076736515
Si 11.730998592988014 10.604551317872138 7.532483990812911
Si 11.6979184188098 8.279301655624433 5.306993838749782
Si 8.587327904553442 11.478954501743285 6.306132178055266
Si 12.747877664447206 11.264341143579887 9.57478571951564
Si 10.734523370809177 12.558836163287806 6.626711899551703
Si 13.383664067165705 13.387154951988226 10.478027095053104
Si 13.09272363062319 9.39464511562704 10.947566529778642
Si 13.587474929177263 10.456732058981 13.04598759545093
Si 12.700000733924945 8.35990638239869 7.446425623860855
Si 8.492601079051765 7.072767086418445 6.690157251561604
Si 9.53409710154763 9.220222695529829 6.182291179235672
Si 11.136386322297088 12.859187877778268 10.767650242558636
Si 7.469727558299954 11.866671281713359 8.396296877656114
Si 12.69952161046334 7.088344439304359 10.619802233660675
Si 13.148420566731827 12.770526040500606 12.767963574338232
Si 10.90080466854818 6.576714926956232 6.743700099169101
Si 9.877772455580299 9.4198863883001 8.783136915493476
Si 7.156199386764958 10.039739674553797 5.100180765031637
Si 9.904473017047806 12.026226325037655 8.815251265854638
Si 10.146775813720582 12.567711806694808 12.937457978508982
Si 5.921045691723554 8.034517161863642 10.19153960715114
Si 5.35537594664334 6.455055413881067 8.448618484915668
Si 6.7363674318952835 7.054611813074902 12.3050639530007
Si 6.905207879050342 5.605620465167732 10.173032054890026
Si 5.0803805886118605 9.46115432353613 6.09384326944807
Si 7.94208232347837 9.086803909491003 13.287440465941222
Si 4.714259980999545 10.169715261294238 10.318635915895364
Si 10.28306781671347 8.961562989714368 13.775265244327835
Si 9.528089157319048 9.103735491996908 11.29912962957143
Si 11.002995460031219 7.275088683739581 12.284949789535522
Si 10.83109643643783 7.182960436220375 9.06264592504214
Si 7.516236039796866 5.167103886812611 7.834543888060251
Si 6.730683132700007 8.499299687128836 7.63905350340047
Si 8.269551375379287 11.129148551559007 12.206536520524814
Si 5.388869924030498 10.63719181187686 8.100335553511469
Si 8.93270433770485 6.590753241210908 11.448054727695474
Si 11.571985573852343 10.957600822730736 14.396215823941171
Si 9.337341877146322 5.234955824525883 9.554737194595308
Si 7.548628931454135 9.721494091354707 9.637867755224306
Si 5.562355718577658 7.012441213372759 6.060918930820063
Si 6.582529875958092 11.720264915881797 10.676747792019146
Si 11.300909408060257 10.621102392084756 11.949373736916671
