40
Energy = -190.24120448 eV
Si 10.71934316713086 12.090098222426573 6.858242172439486
Si 9.70680268526351 14.160459125382806 7.081349553530982
Si 10.053017725280395 9.895709089419089 7.3949936017417075
Si 8.024418884068675 8.673952197998895 7.5608395527326
Si 12.987454304378861 12.324569611803506 7.415424162800725
Si 11.50650436726099 15.175119574756435 8.136101384100694
Si 7.727583850171792 14.670135228405156 8.344457533397797
Si 14.229778858839806 10.26229255318566 7.6303203101529
Si 13.830866894536172 14.428356369682753 8.15621565078185
Si 12.181698542600039 9.08450081746157 7.918101869478938
Si 10.749312835343094 12.917366457798797 9.21164399016611
Si 9.717794126002383 15.234492675104637 9.637693361357794
Si 8.317944016105024 10.22506138672292 9.358683607271411
Si 8.353502983004724 12.698937080680471 9.62489434348438
Si 9.111644880560723 7.608562409474078 9.478205264572706
Si 11.466677233114067 7.5800052839668925 9.588802785674915
Si 10.802563657662041 9.99146881161016 9.860706350977226
Si 13.046138638288053 13.123759693201379 10.033898962066905
Si 13.178436000314177 10.768382550466761 9.678975616207396
Si 7.486793338769488 8.893460864639858 11.190692909808972
Si 10.055198443407091 11.390009821497001 11.811913613916573
Si 8.126915383717028 6.567460440334875 11.338182254972644
Si 13.647673157664919 9.614842498324899 11.693364875109404
Si 12.036980976479501 7.722277018792032 11.889760956495149
Si 9.75056279048216 15.402174556318178 12.010658623682831
Si 10.207359071363399 6.584214783615698 12.823405488891535
Si 8.618709090604105 13.33295576602116 11.935523613816702
Si 11.607943059057897 10.178182500002142 13.130747874009641
Si 13.627339254609897 13.578143630661343 12.367401252860057
Si 8.331049253279843 10.179145417324024 12.943527285326763
Si 11.322262589422348 13.781237645018981 12.668436365112285
Si 9.76775834657782 8.640108254087679 13.900040443180899
Si 15.43746091161159 9.645849465701868 13.129074086866831
Si 13.767343484174106 11.40407123565731 13.446136476204128
Si 13.85101535148695 7.793367827004185 13.514068125115966
Si 10.50327766253069 12.24112046007957 14.233710029005723
Si 12.078854073830463 8.57582229666436 14.951042038178421
Si 8.106252230136038 12.271549413659345 14.053133574863788
Si 10.321530558626497 6.936227493950381 15.329665195240214
Si 12.331860620271305 11.050172769122923 15.365588142433616
