46
Energy = -217.21772163 eV
Si 4.180512225606005 9.73239092169761 11.78069997438303
Si 13.278324766534036 9.73314255114003 7.199656241233321
Si 9.26333463324309 6.25110876781759 7.2171092377633554
Si 6.065962478318679 6.650359589850412 10.910095516842677
Si 8.184134782215457 11.785756617995878 5.659917230068041
Si 6.449387316955239 9.410175929912603 10.859080501962497
Si 8.551128330436025 13.52748430187628 7.351080827129274
Si 9.86531476148566 6.473132906961734 12.452500139729617
Si 10.681457476902867 4.603778241854745 8.439345409900373
Si 7.688437872894163 7.824393555239556 12.37992557239726
Si 6.667498883620408 13.665602499830262 8.810436946815898
Si 4.544113927301701 8.144575712489846 9.882242670227418
Si 13.42919214288483 8.472827432242726 12.290092996273215
Si 7.574840603101692 11.336019913095228 8.13865651105084
Si 11.367729014740053 5.443557125262138 6.0181880773373635
Si 11.855870043761655 8.4454623677987 10.295258482853761
Si 7.823162163498146 14.145855974120764 10.850433751819244
Si 9.625840890366618 8.585014026198769 7.774136900711258
Si 11.248538795259883 11.711947549601405 10.071400650391922
Si 9.861167504465252 8.924885004561494 5.3948976182034745
Si 11.009742809650472 8.64542950910952 12.791971562378036
Si 7.722025251469862 11.484964181754773 11.329008604205024
Si 10.012059059683276 9.897110489963948 10.906265131360938
Si 12.228121554816036 9.804390672095929 4.946478074513106
Si 9.43968383197209 6.494781799189205 4.734618199469846
Si 8.679451947636405 8.13852428148951 9.942063282961444
Si 5.187194378326977 11.915275571739128 8.387245913577782
Si 11.796990897994455 7.3710824620315964 4.579504306664712
Si 7.320752315671142 6.104523102248917 8.965524493413662
Si 6.21825901992701 13.078490110150621 12.365207957145476
Si 12.347976851053048 6.420183047951058 11.690562609623212
Si 8.92125542419305 9.915796127223103 13.084580117909544
Si 9.46429290752043 5.874139785258605 10.09713786611279
Si 13.396160012555994 11.56087081479198 8.885076790538436
Si 11.12162878072597 10.483609660302006 7.984695353021655
Si 6.054369656828013 9.358564153781165 13.347194665288699
Si 7.686936328007688 9.46990902309882 6.450266165011581
Si 10.578452874050685 11.370194920321849 5.814564618897332
Si 12.142177954492025 6.2986282293519125 9.29079408106387
Si 13.977402249215734 9.445952697176144 9.994628729609861
Si 6.650814449092845 8.468967325340712 8.560952089901452
Si 5.168969430483359 11.624370304965659 10.763570407493953
Si 9.167147059759223 12.661884678137195 9.50979106147978
Si 11.77537540826748 7.71997451328226 7.057753492517618
Si 7.240819461947156 11.423489145772832 13.920611223016126
Si 14.027278557304896 7.642709490159865 8.36606503196599
