48
Energy = -228.96443317 eV
Si 11.613403397587113 14.203086891350889 6.723196006734624
Si 11.733618225431925 11.791601818460379 6.926802145646696
Si 9.686350280841085 10.594073253519081 6.941060583507993
Si 8.716089540952876 8.489707403771794 7.460415750623398
Si 13.635242689495149 10.395316041614537 7.299180331635489
Si 8.501443923200325 12.077096438652895 8.244911134470934
Si 9.545463603443542 14.082723910906152 7.952045836097926
Si 10.785694362837868 7.415167701227534 8.210478558507559
Si 12.777404139777792 14.387008185861887 8.816779057135468
Si 14.377913436014591 12.343069167156836 8.541729162670606
Si 6.734494155820844 11.54745409089135 9.752063224471074
Si 12.668164589538035 8.851318720158536 8.844216489351481
Si 7.901917020475151 9.406615055826725 9.795788906470978
Si 10.160942432355817 9.621597369937803 9.173026410604011
Si 12.025820364364339 11.241291369823806 9.250942703892175
Si 8.778403328383197 15.209524360700243 9.890586980499712
Si 10.223192444519672 12.871710666726765 10.098692506389035
Si 14.471213306735457 14.524795208792547 10.418589331006705
Si 11.101486547524557 15.112664819400601 10.335456493249312
Si 10.02433535438744 7.389624395019545 10.425201055360873
Si 16.144685780802856 12.823776851742533 10.131163072403492
Si 7.707241664699508 7.338597824945186 10.975806377961794
Si 13.85611053219774 11.748780754767557 10.848963036031384
Si 13.920888483432336 7.78743862144067 10.568515554345847
Si 14.414272839931819 9.707613133620162 11.922504514274356
Si 11.914652586459134 7.589665189878895 11.807499430288408
Si 15.90829445378544 12.007668364045326 12.434652199417433
Si 8.024538598528935 13.182985249635657 11.05246450565098
Si 14.001295168185592 15.427237906280446 12.556272874328219
Si 13.01087987163018 13.1705857459102 12.522095451613104
Si 11.627090337240237 15.141646236984702 12.590242166713479
Si 10.036582501645471 11.691809055228546 12.409369182270138
Si 16.324190657448327 9.892786821354193 13.35635327883936
Si 8.00116419448015 10.807254138199598 13.322205258477574
Si 8.382344191704101 8.480416168860348 12.901573937204985
Si 15.01143024949992 13.734268649651373 13.899336673935856
Si 8.490095156749057 13.636664467779356 13.331413479530799
Si 11.783386845900965 6.722707727285781 14.025267633517556
Si 10.77220368775788 9.244544133258035 13.160947160042948
Si 14.11795379285809 10.309522066183968 14.221217044530786
Si 10.106320180371643 15.156240206990866 14.394277007323065
Si 10.998036427849277 12.95408921257361 14.378886779404427
Si 9.585785152723675 7.4869742610617624 14.626597343897137
Si 13.271436732890528 12.413574348549673 14.877398345848645
Si 7.111339931657352 12.397951036483349 14.874358324099896
Si 9.31981081952525 11.491359381960182 15.236014317425054
Si 12.480585088946826 8.82211343870225 14.954007376757064
Si 10.374686060435147 9.43617726985055 15.679330138564358
