45
Energy = -202.71676375 eV
Si 10.022172919005676 12.393086098939264 10.616862976625494
Si 15.007512681290827 -0.29437332281793743 15.638017801114259
Si 17.76625559760328 16.981501748563353 13.168718351448927
Si 18.660557487797558 11.325446189606465 16.07082154925792
Si 13.436082620706946 22.700715502830928 16.528420449608614
Si 13.355342301514959 15.680055851055757 18.452822751842394
Si 22.21880961177088 11.225308085041497 14.433583909983021
Si 18.741025060424896 12.180374587387375 12.648909713496309
Si 14.578555534332288 14.419299823615006 16.562828886937446
Si 14.43325182404281 18.303036011022158 17.194668482975874
Si 21.047004122491934 12.396292962456048 12.612207173803954
Si 20.154844192349724 12.16397252688231 17.67748769048712
Si 15.796280544582741 12.723809033893566 18.23518780923166
Si 16.46834044977514 12.133512250495016 15.700874649920332
Si 16.441169729680148 14.303695481304795 14.676134204658156
Si 20.830089072892903 11.969594383415812 21.495019533881614
Si 15.322617672795872 17.245901191388686 13.566706124136665
Si 16.9894152514399 14.598573415283928 17.012540109243414
Si 13.304846759833207 16.43756903670428 16.063353666464504
Si 19.579296728476486 12.882655977853053 19.811585433830185
Si 12.49232018107469 20.71168296214009 19.698394776159844
Si 13.016729356282848 18.777277206384174 20.987967167567273
Si 19.913942487149683 10.68359374330163 14.260083967905889
Si 13.596008151917607 13.378057093024822 19.124897620053357
Si 15.895393620547303 21.814765459255693 15.906902348063554
Si 14.528143509601112 19.418086959503402 13.692445158830324
Si 9.064243445199649 10.967416759784786 12.12274258263114
Si 14.781134747087117 19.313678998418602 19.522276477529637
Si 20.114439578276016 14.301510730524015 13.604933710310762
Si 20.612145935124733 12.811974161268129 15.395225931612053
Si 16.21136605763824 20.758490750184706 12.747317271224693
Si 17.89838721639322 14.516156881422614 12.787452699666503
Si 12.595753065240642 18.03625808114087 18.7445673245681
Si 16.914663771997336 19.06948146109762 14.351529545780584
Si 14.101052967790217 20.2242200168837 15.887096286555947
Si 14.232116047662108 15.232960940684563 14.11625551650261
Si 15.14109957500613 10.748491944915758 17.030246267742655
Si 14.31465935094916 21.527378341074158 18.57848989363401
Si 17.80935784377754 21.332998006201915 14.577919042729729
Si 15.620179986675721 16.385792034605192 17.94929003827929
Si 12.102569418947486 20.824720180092225 17.143355064260856
Si 15.731378377312863 -1.1395465175095765 17.830108748679056
Si 16.852719171248655 18.64218448002205 11.874082265948468
Si 13.419825040102598 12.419619877506864 16.936894918516142
Si 21.41923408037757 11.245853928424268 19.40342515730184
