47
Energy = -225.43896759 eV
Si 13.18429470243848 8.547685148260234 7.606112897450467
Si 10.976002913103335 12.094147712811065 8.505617469602253
Si 12.969703811660374 10.81340210015522 8.323810291643253
Si 11.339018315176034 7.421781744135228 8.541029824140635
Si 8.981754414616043 10.815009618751352 8.28214581483122
Si 15.199290149148817 11.581793903366618 8.263452397551646
Si 10.829796554218476 14.356934568569095 7.9595131078511105
Si 8.66322201110968 14.981802252477259 8.507796658277215
Si 9.728052591398372 8.913364931763919 9.436557603588207
Si 12.275270827508594 16.260468383681058 8.360170884098897
Si 14.992121915245704 7.801673393268527 9.063054399836647
Si 12.117556745730113 9.296530283156411 9.990596375987396
Si 14.435697116269795 12.86118910255638 10.057936930092234
Si 15.585060004060578 9.894270240836684 9.919801804150394
Si 11.38773575475447 13.935322747152297 11.705037941568277
Si 7.236541684966332 11.455836604437732 9.769750350952986
Si 12.210422678558736 6.812279920416329 10.67753101887906
Si 14.549749385451955 6.1837053319575865 10.877537227317363
Si 12.930484385680916 14.687847089348272 10.022778596352694
Si 10.28366980598764 16.080289902562324 9.711818732321287
Si 9.65286005939573 11.711829859796453 10.577842771125006
Si 8.090289656610617 13.579173145646712 10.356775928632864
Si 8.417560186311622 7.897587000895285 11.107522546716496
Si 9.61664205040447 15.561404557679825 11.907811609087807
Si 8.046042496315545 10.182239278261308 11.667022049480263
Si 13.991997237720142 8.419413287064007 11.256844777601287
Si 13.819333510500984 11.986239417287363 12.132864370414229
Si 13.360340112333649 15.37442999588649 12.318201760934171
Si 8.512165485129449 12.911813658406677 13.78003482758699
Si 10.781387420939474 12.222065607346137 13.269415934276946
Si 16.18210882221717 10.619594105634778 12.171117062660274
Si 10.559252403740896 7.858129386244918 12.130565408685216
Si 16.091987294659617 12.984866194641587 11.942580139167433
Si 11.372435080286563 15.884590069075967 13.417820743104183
Si 7.497551272159228 14.625374175814533 12.395345070652693
Si 7.269845372522839 10.833463542895839 13.81963686404598
Si 11.543789671705447 10.018709878985666 12.755768097859583
Si 14.10803506006317 9.802528862690407 13.125413608900375
Si 14.54817336162715 13.747204840884162 13.623984510493152
Si 11.05402729497764 14.180411336781983 15.051694733288455
Si 9.388088821135845 10.205525046851541 14.588912892223068
Si 9.049871593208534 13.580888023705104 16.101476100048636
Si 12.709984083199624 9.537778427315082 14.968752303925315
Si 10.779760519192768 8.283000903276688 14.444518098999477
Si 12.811511433784238 12.69661782204617 14.97635196827116
Si 10.460743448154663 11.656005677075058 16.072379370609674
Si 12.700611925754965 11.135622359283154 16.749137565852678
