42
Energy = -197.01901395 eV
Si 15.883212408323388 15.16047373631035 14.70225359736437
Si 12.560924697133299 13.769820711228837 19.27700069077491
Si 16.57896083695664 18.3892705943899 13.369524342041402
Si 17.65282993171274 13.412578208505233 12.39646567610935
Si 13.106808872036893 13.667293639825646 12.359537259040412
Si 16.83557356792625 13.72050685984256 9.2996584490693
Si 12.793572025595457 14.59521837142507 10.21418881496558
Si 10.941447017363316 16.13972531768406 10.154793071709605
Si 17.316286913987174 16.458375906090332 19.56970404665562
Si 15.401375555014951 19.359543821682514 11.455825009308347
Si 15.352104564611444 16.040709120934427 18.15591904447169
Si 15.447474453156275 14.000074779328507 16.75950326011469
Si 11.554908895839525 14.777832085512454 13.72159171733488
Si 11.347773956581646 11.855058152551278 17.380405375626413
Si 11.001547127137393 12.087096678852731 19.75413326842062
Si 18.42002072554076 12.107826148189247 19.123132309049982
Si 11.39539605155423 17.411919436997046 16.96001454566936
Si 18.138936467778397 16.1087838119612 15.10061754849923
Si 15.147572101093921 14.978726451241775 10.471020651804508
Si 17.944998451431307 13.369779530003713 17.149561843500088
Si 14.033276685986726 17.82160046214158 12.682258823399529
Si 18.83006299894918 14.779724684100534 10.427936855738926
Si 14.949072840716246 17.39698752054419 14.770794620443942
Si 16.105969805788845 12.188742869301894 18.35765962875481
Si 13.773371307896577 17.229218194069645 16.81739879926559
Si 9.716871035576032 13.482359497792919 18.044560315196474
Si 17.844479272360324 16.06051694020186 12.245065465048246
Si 12.521669240774994 16.17732618489237 12.013553002118948
Si 14.893812355769565 14.060075410961918 19.38645525348919
Si 10.089806950128434 16.109955370989812 12.420783965057543
Si 17.74187908528997 15.71419865904341 17.44327018978216
Si 17.27330194256865 14.037031997723087 19.889144143670034
Si 18.888193583427203 17.722901459572398 13.560678329044594
Si 18.084634094512847 13.851717301562255 14.718085034210239
Si 12.363368582004274 15.482967941758833 15.83473527439549
Si 15.441198493438463 14.066219897764725 12.64755814267
Si 16.057605230673474 17.11795937933564 11.035814017742876
Si 18.57233136718901 12.405732571162721 10.46232177053866
Si 8.847172863695686 12.919768207973938 20.133696026532757
Si 13.098720479942038 13.513740704558465 16.944949574589543
Si 11.275969922683291 15.321832599427312 18.051398139070102
Si 17.294738070815704 16.016007994159086 9.037736100878266
