45
Energy = -203.50553694 eV
Si 15.155051318311749 17.12373222244419 16.125920363220317
Si 18.302085066373863 18.93918102156038 12.088313699906971
Si 11.75712608481557 12.94015346922169 18.414454075603906
Si 20.1684040081039 21.681502095136196 15.111540098769757
Si 13.008132854741017 13.547886233814031 15.335837410762057
Si 17.946329030287036 17.308611874931085 13.831185645469587
Si 19.273468153693642 13.29743632224547 19.639707510870394
Si 21.206265819772973 18.963899501848807 15.415459549484892
Si 12.667747881598766 14.138067691046032 11.761669999109825
Si 17.3135761932932 13.493956253599912 20.90215501917235
Si 17.140559071083278 21.033763776490712 15.497227711529666
Si 13.225904300981359 18.59906212556597 16.311355415878722
Si 16.7708953068811 13.289432103291288 10.921200266609434
Si 12.25353462860149 16.386474571708295 12.432968363151709
Si 13.86044415015824 14.067861050093505 22.299624597172222
Si 10.446445201501248 14.888549749047083 18.686993572496768
Si 15.21943489368287 19.769957089715106 16.202056991840948
Si 17.58350667530673 12.406637187582572 8.849124068037082
Si 14.553360494377044 12.789112537719156 11.06175098153326
Si 17.323829421232976 18.31445169183997 15.891261323810292
Si 19.063262463133245 12.365336564870356 21.94244886478378
Si 11.400561920019056 12.88912416237149 13.407902649944548
Si 20.96947810577778 12.20452037442728 20.695769017671978
Si 10.512261311399552 12.523889055101284 20.381247663216456
Si 15.624936990812678 16.718347787027124 13.688452886433542
Si 15.98401219238358 11.130654293186405 10.105248586963464
Si 22.069826305014146 20.82880962695103 14.163847960290303
Si 9.95849500889957 14.77494550147948 20.99253911034707
Si 19.651466875904603 13.059867075634212 8.227996121242523
Si 13.832322304115856 12.496262468959355 13.371708444861259
Si 14.207954131992341 17.79550598060834 12.007956332784964
Si 14.320068747540203 18.80632985073284 14.111380916214737
Si 15.915217844434697 15.24998224056929 21.745129986122915
Si 15.097125570445822 12.898079230250625 20.6534944206108
Si 13.526552676257216 12.008543526893263 17.081592006078804
Si 14.155115187799268 13.657337254607818 18.63225558815262
Si 19.1527158155179 19.695874195071116 16.44019074740598
Si 14.295422455511652 15.642280616161829 19.99014812110201
Si 19.018479103590625 13.699388921284184 10.378571249733245
Si 12.225262886170833 14.325802691500934 20.380292959156236
Si 13.993990741728142 15.0368756710873 13.618171348155624
Si 19.682380876349523 19.776278655526923 13.81949571968021
Si 18.672227481454023 22.050279178280803 16.979985772263948
Si 16.687940496290878 19.555534952939823 13.740523140101171
Si 11.549506692224787 15.224519405725754 14.47074575585538
