48
Energy = -229.04997646 eV
Si 12.257581895704725 14.013154765053503 7.36087278450333
Si 7.139288694338305 12.115981817001005 7.444198497087
Si 8.854233378029662 10.682166572771937 8.400224958499981
Si 11.19521611317597 10.573019561037258 7.9425327260155685
Si 10.756372260852721 12.784843775177695 8.816368522954575
Si 8.511623112056327 13.56869591947146 8.803025293813493
Si 11.995289468106742 15.844023155334678 8.883038268960945
Si 13.680079542762146 13.985658647105138 9.260582691097884
Si 17.17221119283495 13.368903940034047 10.488184880100347
Si 6.99162266991548 11.809975624012258 9.809666287656727
Si 8.091913347909696 15.637080501997932 9.973892945094763
Si 7.759625405093144 9.587218432377437 10.199376144490728
Si 10.429423975789136 15.546120939904055 10.680157493737696
Si 10.951385202588238 13.310131928944681 11.217322064331903
Si 11.450707784209003 10.694030381154263 10.276808964485618
Si 13.72965202763807 16.34446778534464 10.348454263129948
Si 13.68626703711215 10.625319102330737 11.291944646489277
Si 15.826200664242862 14.906012585351636 9.367871562792333
Si 16.037922083945784 11.343284591818838 11.07173316148145
Si 13.27092115434247 13.028096849535208 11.447626556231883
Si 7.493948086534093 13.62398095600263 11.159964994521864
Si 9.474778346338137 10.337039290957543 11.637844740862302
Si 18.394195790840257 14.294369542730083 12.344450817248964
Si 17.205101523904908 10.410304711413671 12.874118682771023
Si 16.577209628334867 12.876790817651738 13.037565012843965
Si 9.124514406098351 12.53403489943948 12.443132544759465
Si 15.966810585891094 17.16389044842536 10.119634042454457
Si 12.270450449762675 15.75640127086162 12.189779757136316
Si 14.612752270681733 14.285948352284533 12.91629157946117
Si 16.351007584215367 15.47246477743792 11.793769564866604
Si 13.398477274688231 11.581347469424479 13.708192916373124
Si 13.481635053853271 9.167679993769287 13.192724261161016
Si 15.783086355594008 8.911866642616427 14.029642786277865
Si 10.376102075827065 9.149110904719734 13.497370408815174
Si 15.635342021495408 11.326867987332516 14.6613496154156
Si 11.916286753137596 7.37222351034566 13.320787092035884
Si 9.599163127931853 13.089266811801323 14.682904106169982
Si 13.079268021136963 15.384621182349779 14.387598305986048
Si 12.02469362136417 13.283741610571303 14.845146305223968
Si 10.838042918704275 11.044615890911798 14.892705209872126
Si 13.63002423769612 9.906833643362884 15.790773788361376
Si 15.919339838144356 9.67394381808313 16.337203101078586
Si 9.150348457389516 9.149907761865178 15.558523207579434
Si 11.850229818642193 8.282167684400555 15.527167311176338
Si 8.612855600769782 11.424720001451432 16.181100527838232
Si 12.383709006628724 11.715979259831142 16.68823797775171
Si 10.435107829976626 10.551878022375218 17.378100183615498
Si 10.294030174292262 8.125863732346291 17.386086315908116
