43
Energy = -204.55813001 eV
Si 9.33080189839475 9.519768604650494 15.639863796015504
Si 7.655638013074334 10.24249251030657 14.070054169353352
Si 7.049984008988983 12.553448574707845 14.63050782103732
Si 9.614384115094433 7.245509626767459 12.677964975427232
Si 10.829130036643447 8.310402317210684 14.357180855750562
Si 10.737882651878422 11.374333229347569 16.23959308700884
Si 8.142994726738843 8.99581969546513 12.048170491028959
Si 13.161547991080777 8.418168198679979 14.471092266359358
Si 7.545944709656308 8.46697850950585 9.76830512484062
Si 9.429557498287755 12.967738375159687 15.040787378746913
Si 10.338622915414648 10.872806952015113 13.814996124849298
Si 8.52595202679111 12.199133312718688 12.824349328662622
Si 12.561569310508233 10.749936076009948 14.73585086611384
Si 10.614946787211945 9.393318631115562 11.679790912623844
Si 11.2089271036342 7.00973528976972 10.92069657892981
Si 7.6647224062939525 12.658161164625055 10.643974292651349
Si 9.95489578651318 8.467533579123502 9.507797218642832
Si 7.952206795274252 10.730798319376847 9.292468527010424
Si 12.781508449405614 8.49161663417142 12.09772926224641
Si 11.279902935812032 15.068515753008697 12.296319011849416
Si 12.812507147217758 14.234576141232775 14.168491614922084
Si 15.242103986723048 14.243493115636133 9.498284629839837
Si 12.886840944162081 14.581900764952477 9.025259284692622
Si 12.36935853439723 16.578036703348726 10.760004073139415
Si 14.444145149185685 11.173209403777795 7.579391992460428
Si 15.356091575775364 11.887549669763086 9.596621587519481
Si 15.802249091174517 14.440527337584045 11.863369291895424
Si 12.501556758672422 12.549060919216432 7.638047403988416
Si 16.351865044877428 10.502414019692615 11.214097392608393
Si 10.921873592319576 11.331209803244532 6.254005605385434
Si 13.786149716086136 15.551559834562987 12.449503635840722
Si 13.604084873362895 13.33512398511474 11.164308824185415
Si 11.113414066524248 13.69470318580748 10.453023822436842
Si 15.180956198652332 12.179520086393993 12.52547696801285
Si 12.79041404590145 11.058036093278263 9.556991837256321
Si 13.643903708045677 9.051792519697276 8.247370958897589
Si 9.101946987075891 13.931793150374574 9.223021787705077
Si 11.372364710148696 9.721846065689263 8.042080557885905
Si 9.423300114196307 11.926292281773199 7.969243906443922
Si 14.278373839799949 9.47372367743147 10.574623658283896
Si 9.97146426318821 11.60801538270167 10.385632244918785
Si 10.650822216249114 15.007252580923536 14.57901096798173
Si 14.192495291671596 12.38154994617097 14.654047886655425
