43
Energy = -202.75444545 eV
Si 12.201067573923535 8.610503150870732 11.602811528506255
Si 10.780405656781186 14.514449666480157 10.022843489589297
Si 8.95513668997759 13.553171170039665 8.802244757866312
Si 9.260606969516754 9.344843776503726 12.437588553021117
Si 14.819074247562519 9.35221511372918 13.712773046298357
Si 12.24398104372151 14.606677597764154 8.180279300570966
Si 12.2070911398589 10.914197694806003 10.611194149099548
Si 11.875708846270488 8.495376051954969 8.265527013330612
Si 10.302681352980725 10.276477966821753 9.03502061190695
Si 10.998378280107067 13.416091189887496 13.856109231960673
Si 12.857068293707846 10.82535576656332 13.614821073337872
Si 7.646445643529594 10.222638943676206 14.031898428698826
Si 9.51792607515491 11.610189232661545 14.710480049853274
Si 13.77331713341881 8.962817189056786 9.708397881156992
Si 15.452291302137779 10.35926163643213 11.615922983773844
Si 7.252761244266792 12.55826844523096 13.838281348310693
Si 15.551963508354529 11.76484884506379 7.941347077362143
Si 15.757375649094717 13.16719978458334 9.866517867852975
Si 13.32182507877044 11.096408594618442 8.359277568676895
Si 8.139862186711312 10.154158111563028 10.060487161295002
Si 8.236398035985035 7.887639483473858 10.833136959974654
Si 12.80606768079706 12.615274703881484 15.2836246755522
Si 9.06689829020089 12.99716587566914 11.231783726826615
Si 8.89909417071205 13.914535646022596 15.06582014521229
Si 11.50713373545617 10.448409079763817 6.800890686586156
Si 6.02185586148287 13.292607427935733 11.805766351690187
Si 10.479647015494763 7.91337355327866 10.099695843590535
Si 13.931639668712977 14.552307864098589 9.868689236777124
Si 11.432657109440692 10.549045057264122 15.806366939996083
Si 7.144470671949345 12.30817347976491 9.790710572615545
Si 15.906316502141719 9.84720715301465 9.376082653933215
Si 13.19307511410739 14.847252181567566 12.079671384916717
Si 13.864529692902204 12.49282454707724 11.328412313546062
Si 16.253502759322615 12.555926851059994 12.17823371973898
Si 6.6007784838408305 10.86950349479868 11.947650413786178
Si 8.191104464356924 14.61524304177072 12.738175128088699
Si 14.516260571918533 7.666656423365128 11.735953918650134
Si 10.518519468434276 11.435241195853896 12.268632667024015
Si 11.218349284599528 9.028747613350093 13.893165556673637
Si 11.128777740860883 12.43121597954733 8.354031925244815
Si 13.152241936356715 7.497379439031932 13.63758015269327
Si 10.826347850893026 15.196253146852218 12.271031505295076
Si 14.379541672037469 13.414669293355058 13.511462717829039
