43
Energy = -205.7079568 eV
Si 12.600172560434135 11.724899608208244 6.7130436614171405
Si 11.147731372777958 12.672713132205594 8.330788690416322
Si 11.313802251830204 15.083047803477672 8.809755825414284
Si 14.125350899916652 12.821176964642113 8.267739435493928
Si 13.759481782973923 15.135077700808592 8.909446778223591
Si 12.546941249979945 10.090531259731351 8.485863517982526
Si 9.268122882813119 11.881305676465342 9.513374708883294
Si 8.443599299723465 9.673911841846662 9.940720905106321
Si 16.045783544676297 12.031542497839137 9.443803106485504
Si 12.329023708929855 7.887156742557692 9.36122559934041
Si 12.516656937213845 13.44350986052831 10.225519506226906
Si 10.84572710312625 9.644085782792734 10.222378862063355
Si 10.45081029501195 14.972392681042583 11.031639539280613
Si 8.313667196428323 13.962049559950318 10.38568009779786
Si 14.488825035924746 14.948427379466468 11.141144285633734
Si 13.761851177850632 11.173521296156334 10.190793489133512
Si 15.9529100174478 9.976892265348939 10.722253310959726
Si 16.503297537594726 13.724761980067388 11.122545507580647
Si 12.114011540308157 10.55457458515789 12.013137794954595
Si 13.89321548449756 8.775570569981081 10.97938060775721
Si 9.808007910816732 12.641482372328937 11.842088352525751
Si 14.675294565884853 12.368261965109934 12.098377580307059
Si 8.415117418662454 10.718146657967635 12.132512896995776
Si 16.021863738834337 10.576630119829902 13.0540610062821
Si 7.430341112213549 12.947116735402656 12.390997692353798
Si 16.697093069807398 12.919460555140013 13.447853894072015
Si 13.966473307799024 9.422718464311174 13.305175738226238
Si 11.264328056828969 9.50086591641492 14.021058536890896
Si 13.93149595892089 16.090258439517186 13.158782271454843
Si 11.208764801461598 11.972126133920248 14.629280694441805
Si 11.660363350316427 15.267332848604553 13.106928023993827
Si 8.897281255136432 9.723474960283747 14.280254040496349
Si 14.489548585876053 13.8825663441527 13.991142158672481
Si 8.963048299519487 13.54660731783118 14.075527396159467
Si 12.648041357364006 10.523166937180658 15.914845678380155
Si 12.145642030146135 12.970446246652092 12.571862059789758
Si 12.955803665744778 8.269425951410746 15.152791720584986
Si 10.029373211640424 15.507650379088515 14.84657276265315
Si 8.990810379107806 11.719562996139896 15.596326684775475
Si 10.838879546823733 11.664517581317087 17.20738869135693
Si 11.27884252496176 14.012765763664637 16.19688148101257
Si 13.412592691444935 12.805634024802753 15.809046227895237
Si 12.512949883137503 13.435570702562169 18.022947782435985
