47
Energy = -226.09538746 eV
Si 11.90698174135701 12.500429496881258 6.758660260407627
Si 10.724834053001477 10.543598547912193 7.532535871527582
Si 14.01242976188324 11.463921443167319 7.289244278281285
Si 13.331278190552984 9.35749281972227 8.120821551145394
Si 11.300140990895411 13.6121226550352 8.828812949273285
Si 11.384409209848187 8.271496605705972 7.267418870187257
Si 8.963835638292942 13.673081228740502 9.226667018869472
Si 9.205325899104501 11.304738348090119 9.10449403944073
Si 12.32512646037896 11.506113277966438 9.165369234647777
Si 12.741195156560853 14.963499744269436 10.137785180173806
Si 14.825163699930684 8.39443259042296 9.737295355096247
Si 14.711727528889584 12.201071432895773 9.382780668595238
Si 10.976680845142052 7.916910218252906 9.612772078732652
Si 7.616835556961181 9.70931085763854 9.973537190096444
Si 9.328671456807653 13.78828119316595 11.581124359224434
Si 14.45746511033996 16.532231258232063 9.831214187777693
Si 12.690116107145137 9.582886680525 10.865859488306054
Si 15.17712890648031 14.27478064211934 10.4429020266369
Si 14.968399563592977 10.482515324485345 10.925185507578355
Si 12.97639868883252 7.038609146764247 10.653942271505592
Si 8.771904683848925 7.654933588957817 10.380620007367348
Si 11.13055722345424 15.349439114047453 11.923655179500914
Si 7.761205787596516 13.855382936617845 13.488252594088586
Si 13.602102633575303 16.552205342557773 12.111778125349883
Si 13.656346848689289 13.618977204003746 12.280153895401472
Si 7.881148959559048 7.153415491473459 12.580344781993034
Si 10.029618900367087 9.8879269867674 10.912162084869703
Si 11.497653383698804 17.481860396863087 12.863670012180934
Si 10.181996674105383 11.779912102457255 12.628687623867776
Si 11.979052377294996 10.21129831007793 13.323841734536995
Si 12.326036294733148 7.762036144034158 12.771532899441283
Si 9.990884357080963 8.026015903953184 13.049294667270846
Si 7.947063361120567 9.599017587542999 12.328267272813047
Si 14.99472275050958 11.734414705110435 12.89181650480325
Si 16.362898502451912 13.741594288633184 12.505272236612742
Si 14.84651496570793 15.284163821096312 13.626829986576757
Si 8.106943037198937 11.473245182671425 13.850716156715203
Si 11.597838656590381 13.54919415542545 13.527346743848366
Si 11.311306595051084 15.792779142845204 14.592207711809442
Si 9.66741977040013 14.095438790980756 14.962505591908853
Si 13.096318803799056 8.459664223129264 14.990692931742865
Si 9.800970454469542 11.08568694077501 15.399623584044393
Si 13.851866934830333 10.793495648744868 14.700749571515905
Si 10.718430009350937 8.98014480402896 15.090889822570189
Si 13.27155167968701 14.640591011252733 15.262155446995129
Si 10.446196696993335 12.768334719664669 16.861626353233476
Si 12.463709469156491 12.467712321613512 15.573288468757003
