45
Energy = -213.30818994 eV
Si 15.21736860432088 12.273841051052017 6.506679004262187
Si 11.670676054020584 11.099784855528197 6.663915254581443
Si 16.802705783513943 12.625854718413136 8.536987450164393
Si 13.672714668231919 10.517359126825465 7.7035298834032
Si 12.884840596930019 13.022314148051246 7.627211719630314
Si 14.83054527573949 14.45867612828627 7.892100097656838
Si 10.96114952204684 10.79951563400683 9.025452980403307
Si 8.887007157027016 10.181219073139287 10.207427571910912
Si 12.593573160835678 8.72998682807811 9.13665438578517
Si 11.24176473496989 13.23724111620386 9.357525475559106
Si 14.502948014827977 12.471427311372082 9.365392583796561
Si 9.15585344881026 14.349376216530136 8.969924195772776
Si 10.41375596974368 8.021453982033195 9.661616900451579
Si 8.652752464816224 12.782505981513168 10.714523708586533
Si 10.219235816278477 7.697768873793551 12.008053247529613
Si 12.483137344878479 10.517771688830543 11.017480090153878
Si 15.779751353772928 10.442658555082218 8.761825383696658
Si 10.367511566417498 10.285096809955007 12.013914673631772
Si 12.049160572448935 13.920606235020191 11.520240254113098
Si 13.89271347597843 12.363434085704322 11.642004659443442
Si 11.671035469621438 16.162239907932694 12.177227256112692
Si 16.781271097318363 13.951463763814099 6.489413376829624
Si 7.9608871159207215 14.549480772806605 12.45362364359197
Si 12.382588707624974 7.0064126998846055 12.980845061628369
Si 15.124648558572543 10.032932818653123 11.096067281382991
Si 6.614970368550653 12.457956508379787 12.06088334116906
Si 11.761518790802812 11.969863147460815 14.72737322400716
Si 8.24216268310811 7.732047025178817 10.375770515582314
Si 10.24699252002265 12.57145909413923 12.57116844946128
Si 9.689948937534474 15.316926151203424 11.056776485487301
Si 13.485179572825052 8.36203773244073 11.307650284406675
Si 8.148307539489526 11.59311484751444 13.696329750040261
Si 15.82461557644239 11.523403033366902 12.831889323354886
Si 6.734657944217886 13.721983334740637 14.278030897145607
Si 11.372618199883043 14.561644176483183 13.966505913178112
Si 13.815755114731376 10.908286021657746 13.94553775805207
Si 10.076033911889349 9.044508604920079 13.987026164973244
Si 12.437073874367577 9.00423490041601 14.35673107626577
Si 9.183824003951127 13.674183571585173 14.551246576898617
Si 12.334607439766394 13.961049617515991 16.075222565790956
Si 8.23860076383527 9.808841372045382 15.335437230543294
Si 13.748735205289467 11.911122051171777 16.176061867482616
Si 9.995532150640734 11.123381160318567 16.1871489582499
Si 12.137396159542297 10.152946766233288 16.506053740413662
Si 10.027238320432145 13.41595411270793 16.79288534940798
