42
Energy = -200.07999772 eV
Si 9.325939214939245 11.434227436906585 7.962699021627771
Si 13.424221877491346 10.770053161023219 8.436773110803536
Si 11.092175081821038 10.108663797855437 8.845166697604434
Si 10.82917342738474 7.8318369191475385 9.622948616948381
Si 11.841061987411036 14.870220543674337 8.748080706394246
Si 13.420923595229471 13.10222404288885 9.08667587563986
Si 10.099801829296094 13.29101516874275 9.235162954718794
Si 8.227802259323889 10.698441311591113 9.904885759682298
Si 8.988254968628674 8.74164701386225 10.873891508500469
Si 14.225801261247694 9.74019444065832 10.507386433752247
Si 12.346685948183517 11.396285647631865 10.511978679191401
Si 8.578627032472099 13.729730876924688 10.980700545245767
Si 14.472488103091221 13.784591026907666 11.123600493520579
Si 12.016241904624067 9.091480464164015 11.2222625498436
Si 12.462876774496792 15.124925474894349 11.123544683488136
Si 9.188786657413036 10.87843041814161 12.182365303020914
Si 6.975538457934462 12.032269971934461 11.415459221018734
Si 14.793690389476222 11.540211557667618 11.942116173099313
Si 18.725251951187325 13.47122943542243 11.328253239191932
Si 16.63503921862262 14.713718295889993 11.49371492857074
Si 11.116809088852955 13.27651945504654 11.5069158954791
Si 17.088614660632917 12.08516497345137 12.324402174377425
Si 9.333025156708564 14.626296382867434 12.961430249267469
Si 11.182913689017921 16.128318045991897 13.114234686706627
Si 10.977155825179437 11.891195180095242 13.38804341600376
Si 8.63245810692004 8.718027352680322 13.27635139502829
Si 15.597175489204234 14.822313282720105 14.758567580387218
Si 11.014365772775315 9.279002189717389 13.362149197859072
Si 13.714505052617474 13.696606732354358 13.667950123261216
Si 7.217370471165784 10.897309777255009 13.644475337625945
Si 18.09986036179991 14.300499653873844 13.495202778112004
Si 16.794835617698094 16.276817644851704 13.27512381219012
Si 14.35029014067183 11.44084858144182 14.30369276195454
Si 8.799428207378895 12.701010780845065 14.30037644422897
Si 11.960064449105639 14.705993061250977 14.917041424641793
Si 16.65984861669355 12.221564399227185 14.616809650282226
Si 13.818596331251829 15.095967320873479 16.405727957234653
Si 12.288370742025656 10.431500255336479 14.969184480497976
Si 17.58131793843084 13.946427999306 15.847836702026296
Si 10.700774764758076 12.764717680004356 15.692006303686032
Si 13.343125375335125 12.826312872316857 16.20186234068009
Si 11.802769698008225 11.260246869070379 17.16700628311222
