48
Energy = -230.26325471 eV
Si 8.28801416965485 12.798428359098578 6.5170998949902454
Si 10.461913095757158 12.206297743004296 7.4531075577384716
Si 8.04475344496194 14.703072564703618 7.891815195358144
Si 10.492560602325316 9.993055171644126 8.213585306691655
Si 8.597060428210103 8.825667976325226 9.026779948511544
Si 12.598076541950988 8.93520444438206 8.092289201120842
Si 12.68441926049448 12.83491823221971 7.996287134398333
Si 7.142764810506418 12.550033798901875 8.695361761378077
Si 6.0828448765305305 14.631253840083163 9.258810934906748
Si 13.970061656000642 10.910339940624365 8.206710378146276
Si 13.713138484254326 14.889755987117233 8.803010026271647
Si 8.178196469284094 10.94561527054482 10.083320384266104
Si 9.633924607397429 13.00105360806781 9.490717831181039
Si 12.397428487900585 7.586911654300449 10.03664069685126
Si 15.503342127804203 11.499728822958623 9.840385316875652
Si 10.1747105880052 8.25914522825739 10.812899358461037
Si 11.784569676498139 9.956190822751296 10.245154664874413
Si 14.707703621685793 13.592079070074613 10.60696094750704
Si 9.48769583793353 15.46207576898504 9.573564517682673
Si 11.73325078871506 15.094297355641032 10.081850246077098
Si 7.492505506240792 10.988327812477038 12.33263917703973
Si 13.678855676349096 8.388444408059225 11.85785705730653
Si 12.965486667363372 11.96424760092237 10.293701036787
Si 15.443150561435367 10.272730770920468 11.895900251860267
Si 7.69398563279625 15.08886800249249 11.061734585618632
Si 16.044800534380634 7.995881266849552 12.439825484454055
Si 15.59982276730435 14.179897762534797 12.717832047008192
Si 8.20271796938846 13.217082519115129 12.44176735533857
Si 14.254099821776157 6.789563348073267 13.750309813121936
Si 15.66927154430985 11.954445543704942 13.582318290729747
Si 10.590563905988736 13.205740921178776 11.674592275096456
Si 11.69506221236499 15.322368882768014 12.390298709713402
Si 9.467979482065457 9.968604343837056 13.179736832900748
Si 9.873189951905237 7.622156786115712 13.090236276414808
Si 13.453763109866886 14.28075618766869 13.591742676313523
Si 13.471072376881969 10.55781034747308 13.318753230905369
Si 7.465802172023513 15.277996109945576 13.453058231721265
Si 15.093856237082917 9.071646150095454 14.546468836267803
Si 9.744936142140656 14.711448224306329 13.635024665748684
Si 11.342023652082778 11.44469031553368 13.01071542941021
Si 12.11430712964922 8.171962801001461 13.716993193390616
Si 16.309654972465587 10.884869531003382 15.646865224420731
Si 11.011139413344006 13.082229661183659 14.874960574928776
Si 13.32622344146661 7.757637144832801 15.841224604925026
Si 13.003689170744446 13.891924132478096 15.849136427700307
Si 14.070903293048303 11.778165838992805 15.539689380440018
Si 12.459582463012842 9.989295685855621 15.511904545947639
Si 10.228566919085733 10.909524543330042 15.271804783637478
