46
Energy = -218.28468786 eV
Si 9.331676483356514 8.565641729185671 3.5698667906804253
Si 12.14652818978656 9.773575334197867 6.275811761777527
Si 8.822892320368268 10.768384885191681 4.674928284690011
Si 7.406020946207576 7.691192561788884 4.774514254920581
Si 11.016696554196258 7.918916670065267 5.238269073427263
Si 7.026881326218806 6.084300054219217 6.457993788299909
Si 8.328023208592873 13.181360802893703 5.40727998725948
Si 10.243892476356162 8.718990372682436 7.447646874835454
Si 10.390382755413695 11.43370861395886 6.287576340649751
Si 7.2404651192047265 3.7198237886467442 6.844253246072224
Si 6.619788512114481 10.98399148031618 5.5812045771226275
Si 5.295936916785195 6.390316405658828 8.034377948500927
Si 8.969778727543604 5.319967075828312 7.6863215863539915
Si 12.467558865046916 9.413812924193856 8.596190656005936
Si 7.194086257828965 10.992059590908651 8.040881713837816
Si 8.043004952408323 9.196409048157795 6.599773272302678
Si 8.089126301143644 13.297482685557775 8.569356535304212
Si 5.6052006650931245 8.760455910510457 5.796680920032303
Si 10.950069024154159 6.454267396972939 7.109035063926314
Si 10.073178957057161 13.682006403396159 7.094654363947736
Si 7.6628925547275495 7.4322116452082385 8.521659191151295
Si 12.66188289135733 6.01792978000865 8.749046176995307
Si 6.2943464564807545 13.008008826260008 6.797563851956924
Si 5.643244516239927 3.9504423786952563 8.712144841923731
Si 5.616414066573443 10.387698578684306 9.644729336290434
Si 9.595480383868122 11.455659870774335 8.491633659684219
Si 7.765781513718418 13.521859556234352 11.092295229867693
Si 13.936640065808946 7.9460541792085815 9.774596593294557
Si 5.597594253944265 8.014239592476036 9.833899320061525
Si 11.554718753152248 7.5510360939115095 10.356529042111903
Si 9.730222019935828 8.993356130290094 9.785088793799435
Si 8.102357895333716 3.6414614765730344 9.21190094922145
Si 9.268656923285944 7.714507832727203 12.110348037420634
Si 11.124435493619876 5.180516042718148 10.499975300763913
Si 6.134611454097914 11.75902910428031 11.491688167581183
Si 11.33147201757452 11.012335592320598 10.01310477865457
Si 7.630048081604225 9.753443524323984 10.86741693237961
Si 6.59777428226246 5.530683137569622 10.248340536498526
Si 8.739623854570677 11.500937169189815 12.064526237471815
Si 12.803257399706855 8.486307468486457 12.192552256031044
Si 5.211774349973762 6.771746449139037 11.81000092650131
Si 11.327885178433542 6.510745652621246 12.596606031720842
Si 8.911663208722098 6.087840125359115 10.197394777934694
Si 10.654849188727454 9.858000674952285 12.00847473650291
Si 7.033412256832604 8.181036821757727 12.571869549712579
Si 6.90517166965801 10.483647850986973 13.367396993606608
