51
Energy = -243.17526244 eV
Si 15.307492557077389 15.69012567151212 12.124830752798722
Si 14.696742262661154 7.934135031097069 12.357587860307971
Si 11.467638038462619 15.164686545030824 11.588339094326832
Si 10.2212311635026 12.694834937826654 12.748136226141273
Si 12.392371223317468 10.3545338998537 16.498157337216618
Si 11.013580719374437 13.583132641407271 15.121609487981138
Si 11.857051129846154 10.361317684802824 13.970771341076961
Si 9.618510483086308 10.483098276684872 11.646737195280924
Si 9.908725832998186 8.532711774515432 13.16686346617188
Si 12.579386958182402 12.319568347705458 12.777036157240026
Si 13.739446943249503 9.18706194151998 14.902285512399533
Si 10.161024981755968 11.562535625374384 7.5087181358547
Si 11.15375575680387 6.912776177837459 10.765046410708477
Si 12.605864951573201 7.723684805122486 9.049028549952498
Si 13.894402684786451 6.832242161075659 14.309306833024797
Si 13.049042354608929 12.375768064996434 15.429831182206982
Si 7.954357848255762 11.58018079011336 9.951201625642197
Si 13.125846864024329 12.661218509693906 7.842163778717961
Si 12.610949004613186 8.892581083509947 11.237777352569067
Si 15.797913948078222 9.96370352231211 12.05340541961748
Si 8.539660068363187 8.919898779769126 15.097268467612398
Si 15.187041825849487 10.88724067765625 14.049580458225593
Si 13.379893362471703 17.000258829382666 11.465870173743335
Si 14.523820040959668 13.659622110381122 13.151198053923578
Si 9.198921175338926 13.52181635349155 10.700732917698282
Si 15.473109428311222 13.566626853658322 10.93087119416369
Si 11.372803087046725 17.49803652180082 12.695049093382373
Si 15.385315155253437 12.895297076110067 15.22851623508831
Si 8.351396163502477 12.711388630865065 14.340872351920721
Si 10.128547376853323 10.625412958309052 15.677685425654229
Si 7.800463684773167 10.558848922237237 13.577611251345607
Si 11.161394417608228 12.731358699111638 9.345790929444323
Si 12.180773517829158 11.015518453719222 6.337790373574562
Si 10.41636398931638 15.389119894276394 13.677309447111575
Si 10.16834481416545 15.264757258959044 9.390155004482288
Si 7.086015107359481 9.904199340039824 11.436619932311984
Si 16.206398221653327 10.058534329170113 9.714986875791043
Si 11.953637011122554 7.339953942877665 12.983278765928022
Si 9.32339561427165 12.751184847825789 16.517161073840903
Si 12.360194411040831 14.893042320418049 8.322456184088603
Si 9.531742200922949 9.655208312181616 9.292199310739448
Si 14.683830646602585 8.212546902525197 10.032850633745344
Si 13.072539263450214 17.221213873138552 9.091049083450693
Si 13.475881100815739 14.734063714323309 10.463171925462623
Si 10.964654434820824 17.31863783838221 10.299957817684774
Si 11.865526166975537 9.985925844650403 8.530140714921467
Si 7.927637620330947 10.605042827686017 7.795868323314478
Si 8.95070462618629 8.011851073584394 10.980128807276506
Si 12.507874845218714 11.203629446310611 10.621606931155723
Si 14.572346635853036 11.811326856183666 9.578182653112206
Si 8.319545655020264 14.531958435609463 12.795914696359565
