5
Energy = -19.24038751 eV
Si 9.619683223692695 8.512096104580015 8.416067082709796
Si 7.659304732463267 9.26000417112048 9.387944916186303
Si 7.940926846118913 10.849135311420396 11.030532986161978
Si 9.883451904098386 10.151899522237777 10.017296556177103
Si 10.822356254279093 7.168132688046454 7.089855366855613
