55
Energy = -262.40027243 eV
Si 15.721028129722685 13.384636088822921 10.885830340931632
Si 10.789311175053218 11.066001911904896 15.834328097071964
Si 7.16186896258579 12.855098758457256 14.499611144125181
Si 13.067072812208837 15.59070000032224 12.03218853146522
Si 8.792727721838418 8.299139389837576 14.348762159128345
Si 13.365424612887601 11.713121426452984 13.662999804293982
Si 11.155728954892947 9.792063354468608 11.48161768210497
Si 13.595931870803227 15.183546045813918 8.709200026018857
Si 13.638520407092878 7.441327698492062 8.058657235676383
Si 15.667623432401912 12.242049597081134 12.997707831552482
Si 10.604497998961321 14.653822797781798 9.51794580930511
Si 13.417915593798956 13.550544337052788 10.408976264964009
Si 14.244976626259373 7.914765964299133 10.383233593237051
Si 9.130677764451573 10.732196250276427 10.280398465505598
Si 10.729655234980044 7.285205555267 10.798805041593026
Si 10.251103563128385 13.631623277621454 15.064942378338888
Si 14.987179606279026 13.250815004304194 15.085197920930671
Si 8.66879311356501 12.28924502165644 16.418477316314963
Si 10.140103297816482 10.153380968528843 8.222040795855317
Si 12.618752172191375 10.56020440053179 9.671019269582798
Si 8.769886751398014 11.979847313250737 12.453110639720856
Si 7.908517205997172 10.45661554727032 14.865178726500615
Si 11.024810165336042 8.703369953477248 15.230864874106832
Si 15.976721384738363 10.635888953995149 9.293546971768487
Si 12.926643422171992 7.416757094145003 14.468700910948948
Si 12.06241798156548 13.118622653930984 12.288311906941937
Si 16.102218457514535 9.843211416736871 12.956440634464157
Si 14.957449557969033 15.697183101477757 10.642483020624315
Si 14.78618513863562 13.193837052790254 8.291096632775181
Si 10.802951088061405 16.0622441206235 11.454803020557515
Si 14.273040996546257 9.751014934030131 7.89920236149502
Si 14.497037845345616 10.299072718765924 11.174334736330607
Si 8.715433571609449 13.10520320181726 9.32008914239191
Si 13.221043529689723 14.619660118529803 14.130632404965308
Si 11.542054571141247 15.615708158303075 7.500608920293293
Si 12.641665603335202 7.737368926369164 12.12267853473587
Si 12.58765995517376 12.606057948881615 15.81801636600643
Si 11.226048067906778 12.334712573095238 8.93310017188074
Si 6.621482602121674 13.28386752452394 10.515393814128553
Si 9.047343297855475 8.544858956364195 11.871626264599437
Si 10.180195664926018 10.36220276734848 13.591062530137537
Si 11.632794136892352 8.477944392428677 8.876966072278211
Si 13.86042194733072 9.404183902602933 13.633417246479848
Si 6.747474663215455 11.115367920696615 11.579484491432053
Si 11.514805069496573 13.278275737178488 6.710817005846836
Si 5.776127916480378 10.912235000730126 13.839773320037473
Si 9.389087169406023 12.160604342975349 7.131228518250915
Si 11.939925838951899 14.902955768385961 16.122279319794398
Si 13.242600038641438 11.765543913172966 7.268394953240187
Si 10.024892034489438 14.258452593149231 12.78636025674037
Si 6.683543159206972 8.836928231576286 12.91181676301239
Si 17.020201192242 12.739952821847584 8.953684503574873
Si 7.1866920485088235 9.00884555190737 10.4229537840805
Si 16.425044374595696 8.779050277896921 10.795375972763289
Si 7.670794632985446 14.136938779959403 12.51829121566842
