5
Energy = -20.49735924 eV
Si 7.559630469430374 9.673868099866024 8.97705382661829
Si 8.835857612598172 6.719013872757295 7.413782728361267
Si 6.953249106580134 7.367576064424161 8.747763169092742
Si 8.273644087836388 8.963803633726625 6.804396205650262
Si 9.355248723554704 8.2533683292259 9.034634070277322
