53
Energy = -252.51906198 eV
Si 8.932830111568093 6.668086613653923 6.077264389378319
Si 10.44667855798074 8.70719363670883 6.453862771542494
Si 12.702640027998134 9.377576463952137 6.018281987784878
Si 11.740970785869687 11.542329832177014 6.667279389971847
Si 12.781758301110685 8.84054618306862 8.42242477845817
Si 12.275105347558256 6.448736092287831 8.748385022076924
Si 8.333165353864983 9.095756460484337 5.571031665691832
Si 9.432934817855262 12.20054605280683 6.090030575983956
Si 7.227146390626006 7.630742889939485 7.502376226628161
Si 15.054719586588325 12.381987939366022 9.24157242504717
Si 13.186779979082992 5.823503609001304 11.010442037827158
Si 5.909933778351139 9.736800564818362 7.0214105044100545
Si 12.175158746670052 13.95795148258978 6.957107455207099
Si 9.94780165887157 6.950248330242476 8.293923812302005
Si 14.665401599788046 9.786366855971506 9.654067253624273
Si 10.465139694377227 9.245385769560144 8.852553763743918
Si 5.443845439607602 10.125618656608117 9.32474098065763
Si 9.902139746314214 13.977578703383683 7.658142045714839
Si 9.623525937314039 11.462550792904164 8.436382365392967
Si 13.305206268953928 8.242965532686123 11.388234141269633
Si 10.85825571013768 6.781078610344192 10.88630208717815
Si 14.226830341652358 11.610772877897388 11.374012090494745
Si 6.415371240955168 6.076244300668722 9.291887046846144
Si 7.417011568604744 11.649053607780782 7.300380046772693
Si 7.810189489098124 9.585123007444299 8.695022654121475
Si 12.80150306220728 11.45466467510846 8.89368589268432
Si 8.250854436331624 15.051716522665075 8.987599005276152
Si 8.33305426210043 6.851501618561481 10.547068538882991
Si 10.97183091908831 9.166104026382706 11.274872356763657
Si 5.601463040972873 12.049214000304163 10.713995811177337
Si 7.10969358423056 6.050502582622972 12.619262850894016
Si 11.136928791947994 13.098478754845788 9.672448769193505
Si 15.313473960249015 9.582563206313885 12.04544309625496
Si 11.636006258374978 5.6781006472436335 13.044441897225596
Si 5.741603563012339 8.075667210519452 10.373777632301573
Si 8.311858988422618 9.199829943620774 11.049656739642076
Si 7.549449798204164 12.811318885114634 9.485808236125441
Si 12.056954954506013 8.007536920066014 13.512602345638086
Si 13.342877489020667 14.008974822840317 9.135754043275211
Si 9.36727306804541 6.625511514403204 12.997025598594087
Si 6.865589282170767 10.732131681732794 12.291414269944104
Si 9.84290357448477 8.9412929620183 13.423565765296443
Si 11.812833484255378 11.373648341198628 11.54466954207388
Si 9.388422535083464 12.247013427980061 11.171037905630007
Si 6.399112789821029 8.413642795519888 12.58877283286897
Si 13.653634922773582 9.699174065887918 13.876744986414613
Si 9.748973541575843 14.708114670788575 10.835139372285818
Si 9.837325572307773 10.693311005410196 15.049975520128225
Si 8.624399725212427 11.851167852867391 13.424430519723426
Si 12.188512470155086 15.023957649795559 11.111382607778133
Si 11.923393567093592 11.337140035890236 13.988183575251016
Si 11.657914366386281 13.446103589568118 12.895335431091345
Si 9.388603253241062 14.101119648545131 13.119834180850322
