5
Energy = -15.6515483 eV
Si 8.82201408192152 8.423490938327332 10.774330930332658
Si 7.057037360551182 8.03061609919625 9.35967975882254
Si 7.829103840875259 10.172781723557994 9.66010274010211
Si 12.993786191475362 12.668711089327727 10.632643959032798
Si 13.421263776296515 10.756335983874973 9.697006566334208
