51
Energy = -242.09221458 eV
Si 7.325663888169624 9.392030081338685 6.521548534869101
Si 9.492470163246775 10.735385569404745 5.933292911213023
Si 10.859476389229215 8.768893093309392 5.931672535381254
Si 7.311288612086545 11.339445449402552 5.148149461989862
Si 6.891841216050456 9.422735752480826 8.834237663967201
Si 8.69858696797999 7.467839923571998 6.891130096507903
Si 9.337946503513693 13.998638894116782 7.013046731503297
Si 8.772012889931046 10.827123230302092 8.289977980982819
Si 5.929868833712811 11.281813220703144 9.965774717710923
Si 11.075609012043891 12.54522503008082 6.047744559210268
Si 7.459522677072329 12.557092987548256 7.266433348056064
Si 10.36850137276397 6.362596964867822 5.655576475545419
Si 10.383551433859314 6.43320447003698 10.068623749041109
Si 11.379582779771402 6.244425069410199 7.883891414509416
Si 8.381610581395641 7.4915379229161765 9.277844003359348
Si 13.171985069982679 9.40854005194346 5.934114104605857
Si 5.957538093197996 13.43553872107145 8.946862071910266
Si 7.102344148129757 7.8703162504336275 11.642486276959675
Si 9.946965197734823 11.837270862511456 10.148508317640175
Si 9.635548975238013 14.897841713258796 9.172832563266427
Si 10.390139915560125 8.660869100349453 8.351677243566598
Si 11.137671288973523 13.031402657996164 8.510223207620982
Si 5.40387345029589 11.33356747474482 12.354350132501919
Si 12.666165428487528 11.240780157582087 7.491921296354723
Si 7.445979789419324 10.227514221376449 11.549383961164725
Si 12.974906789139213 7.940839382125959 7.816677780602708
Si 7.978892876500234 13.4075710185543 10.213348992733604
Si 11.952569127847067 10.171827326080443 9.586207809596619
Si 7.404908813759583 12.713472204647335 12.500714195141603
Si 11.982127808359287 15.142898087836208 9.771676783193612
Si 13.606063352940838 13.058555228831942 8.886473396669242
Si 6.377839955330266 9.388283382613789 13.548031646480226
Si 12.088897916569474 7.932440072452299 10.79220489054373
Si 9.017054618026688 7.586808650912308 13.00604714191724
Si 9.437915047050943 11.122547387357477 12.451116880067222
Si 14.063248352400388 8.825881747537247 9.701314025393161
Si 10.283481005578526 5.555199311572202 12.38530376994297
Si 10.799369629649961 12.979198580996824 13.684959037984642
Si 14.471791121783712 7.233332114699047 11.534638901940806
Si 11.393822923803558 13.471342794010209 11.423650901274986
Si 13.087739153409695 11.883717931490455 10.982056598634413
Si 8.654832960727843 12.341690387934777 14.504820879273426
Si 8.7824546919612 9.748417445431949 14.338358164790874
Si 11.793121153192349 10.72353185975089 12.860242002765398
Si 12.525491538417063 6.375793956197064 12.89349406585386
Si 12.531464605291957 11.786070153070515 14.903932610406917
Si 11.198191917499452 8.39995006379332 12.969125681827741
Si 14.029444985584838 8.86740115290194 13.21179103198569
Si 14.153557927106505 11.230667730895277 13.075925289344081
Si 11.209234916182577 9.708249212317291 15.108103408030097
Si 12.795642490441114 7.7721326110871845 14.912833812315863
