51
Energy = -242.20554485 eV
Si 15.34402830088379 9.948323339515682 7.406972002927479
Si 15.34118567010845 10.821147737099016 9.697108793625343
Si 14.014199727411087 9.600228666782142 11.272796766353709
Si 13.868424620698004 12.460015097960104 10.697198654063817
Si 12.760836362676907 13.176059901525512 7.524013367208519
Si 13.819820296106728 11.394680264622968 12.868614646917427
Si 14.018458144843283 11.64294676829529 6.163501811159812
Si 13.184848638698073 14.495809679401562 9.546522243749129
Si 12.20832443656498 7.127034300673608 13.76300254787384
Si 13.79817600741641 7.319364246536299 11.93244530867627
Si 13.329400463004824 10.841313761562816 8.380086728663292
Si 12.606425851144971 7.1230997612620985 6.896483272481099
Si 11.601956767097528 12.380470354237715 9.516216218836853
Si 10.723072694922326 12.986335639759183 6.219083157774039
Si 9.619633318435802 13.899357038576786 11.874499331239278
Si 11.437090398064774 11.307867358323612 13.374384473880326
Si 11.872450977275 10.677711842820926 11.132370632529446
Si 10.734465493412056 14.518767410260722 9.898968914676104
Si 10.751117457018882 9.004763908579275 13.439259263588692
Si 10.997057133906239 5.56356225764464 12.378291908343819
Si 11.71057713692442 10.743312341134198 6.320303750199857
Si 11.435444808199621 7.8795984611601915 11.409542566220177
Si 12.031208064243241 8.917713435644323 8.386980367385576
Si 12.44095547479169 5.874166368808355 10.5501410503386
Si 11.25196386448659 5.985594859723182 8.510007333767696
Si 10.848941560049491 8.55978468634686 6.1227099626936266
Si 9.989272814913749 9.772421183897944 9.278796895869618
Si 8.683325285127472 10.114193422089247 11.234479513819982
Si 10.023420305002047 13.120381853146595 14.054368758195688
Si 9.374310778568855 11.598802899415325 7.8181271498165374
Si 9.487202745305682 7.2953512118010755 9.463950889955008
Si 9.41140030837854 14.278428588775583 7.879095171714873
Si 8.92701560216942 5.7256125592845795 11.232512217477838
Si 8.776297516626702 8.690627801877243 7.3604706270712645
Si 7.337536460054845 13.5846199797154 11.34455205251487
Si 7.805265783569462 13.06909002123929 9.114141101047965
Si 8.397890439026815 8.780216947989508 13.221024886477236
Si 9.141222282126032 4.825510981614439 8.946989772803562
Si 8.391356738582672 11.846794336604008 12.8340172295173
Si 7.6878449864977085 10.573646652284227 6.363327850842834
Si 7.280728714880428 10.470542214038302 14.506355647833367
Si 7.770061595593183 6.511682906893295 7.772124760733006
Si 6.388322130926344 10.023615137561096 10.519762407614417
Si 7.200732882345099 7.237504248434314 11.840586751031537
Si 6.502649056752783 11.450560523903517 8.16653507400545
Si 6.693580608280512 7.616352908619315 9.539020240620527
Si 5.205814211567682 12.181135689482026 11.535693274188043
Si 4.5392085854323465 8.622808513133018 9.600787370911272
Si 5.628743709953326 10.265719562340019 12.882217116224593
Si 4.976454328921588 8.209950173907634 11.959324332244606
Si 4.535928406560996 11.164318132318519 9.417221186303395
