51
Energy = -242.09836482 eV
Si 6.046502783662704 13.91402793357503 8.832411040044096
Si 6.0642298186245736 12.482992644058617 11.960553106191103
Si 9.053320858457866 5.76404093867749 12.367076168764854
Si 6.818628350146619 7.181272734787454 9.393145774219812
Si 8.436425884722755 14.246761071888066 9.209176394647404
Si 12.952748967049466 12.169377059477968 10.708588282881195
Si 13.420870236688712 8.064934154057333 11.574771800524296
Si 7.623681022041699 9.413578988916203 8.448158693984395
Si 12.338824836242663 11.800421472796565 6.792770050909721
Si 10.956156109938796 10.639838717623123 9.842225024949485
Si 10.096361259180426 8.336034065612473 13.65666276636289
Si 9.574962689192489 11.97595920028928 4.320733235302786
Si 6.715243644654276 8.660447498948455 12.07768749070671
Si 11.547265543835694 10.597590552121842 4.873951795859062
Si 12.153607690911995 7.11944891399536 9.736283704267702
Si 10.548805541069239 4.272903768551624 7.713879370398238
Si 13.259883240992043 10.811784595143944 8.71401819634661
Si 9.758597066662427 10.20852980266898 12.009910578737989
Si 7.77092726498826 12.003363511409036 8.347620915612895
Si 7.694236618411988 11.054239396951317 5.456635212650044
Si 10.534558785485663 8.788076971075347 6.212739219369281
Si 7.050605569480312 6.752228138493692 6.962057407930495
Si 11.14482565177546 4.6364110362801645 12.391875717401238
Si 9.823019945205381 8.471847924683361 9.151950783577892
Si 9.09975370332809 11.894133683418833 13.60641493532872
Si 12.887917824327204 4.777464074582526 8.866917439076198
Si 12.651416997345581 4.5492132371994645 6.424951896400957
Si 10.72252228358672 5.199958878075698 10.044312635894316
Si 9.875154141317852 11.194807931504538 6.76848481066904
Si 11.259131388796533 6.491266997696782 6.525132521095801
Si 6.897835697489087 10.77156462200964 13.380078284362805
Si 7.057670308189701 14.614594303588063 11.248073781257954
Si 8.11714766306596 8.798757230264242 6.23209897735902
Si 10.787469278485284 13.368801404855718 7.610264214324306
Si 10.70425274310356 12.98081159141628 9.972584970970976
Si 12.12648810526873 8.820098219387159 8.05468842333745
Si 6.6447920377219365 13.073746684945803 6.418760742034924
Si 7.399485730903699 10.801275526848787 10.762679402091218
Si 8.916516171597758 7.9900850495218245 11.352828935526752
Si 13.44446069721635 6.817289057722702 7.541207151666945
Si 8.67428907333859 12.848247587325616 11.339805905888069
Si 9.234698913671247 6.42583732672421 7.950785839722961
Si 5.549169395494494 9.569736278848366 9.578527608392397
Si 7.924771521635604 7.29680684045032 13.804012723843103
Si 4.911424562606392 7.66447473614754 10.818222567663232
Si 5.2001934363474955 11.88178679089 9.860556362777134
Si 11.126439359789346 10.507969643561339 14.082686964262525
Si 12.27051826990513 10.185110638659845 11.932106444409154
Si 8.997509748119455 13.51911248829073 6.0946033375138295
Si 8.248518355850656 5.39923193367088 10.161310597250937
Si 11.62996288907685 6.935505827311132 12.556819472240377
