53
Energy = -251.46715924 eV
Si 11.24384957098214 9.249139440151351 9.352404511513736
Si 8.6785333109293 8.15267230723165 7.161041778923362
Si 12.331001850723396 7.042973664601297 14.376774239802137
Si 7.8288856530745505 9.275865217222233 5.135858622130299
Si 9.534255508471373 10.882863797838441 4.720140982420358
Si 8.229686193156166 10.938250766598603 10.312036364432227
Si 9.984524564893915 11.312992992209342 13.097849767896191
Si 10.61577584723729 12.02688352232244 7.102431773198418
Si 13.72826109639661 6.067450934735941 12.665869712179767
Si 13.079497669241901 9.632214976013822 12.439738493882212
Si 8.256553409546672 13.509361814013994 11.684771512254134
Si 4.0958351058352465 10.545795392603912 9.763021267372457
Si 5.31019061792698 12.56453804226504 9.038230248967974
Si 6.4567580104153475 7.548928160662117 10.125375528629716
Si 7.6809606127663494 13.606041193040415 8.488717427119338
Si 8.584324824053223 5.6640971832184706 12.900795105789332
Si 8.599856485212186 6.777666634260876 10.775824821520397
Si 7.974403734097203 10.001531972408273 12.453782448102872
Si 8.44997338963914 6.91228275999077 4.98176462509862
Si 6.30835339513037 12.084926089270477 11.28322618056607
Si 13.76039387824036 7.799015454462479 11.080195399735198
Si 10.95309149528023 9.57554086271739 6.333966133783989
Si 13.227764903922337 10.083881229856757 5.481605571276108
Si 7.927030341174247 12.231459804986523 13.78601094829673
Si 9.102423848316914 13.076447467036916 5.5102268836091755
Si 11.076406119021353 9.155890339507662 13.749648960022734
Si 9.676493786243585 12.688420974115168 9.518005945341121
Si 12.94590353536093 8.061508368244361 6.675551501804845
Si 10.258546347714484 6.864544433393506 9.042377998174642
Si 5.985939605031485 10.123774855681486 6.426290882772174
Si 10.733642909611412 7.581771556545729 4.806687395610898
Si 9.33367061344174 10.216235878598638 8.242334825839139
Si 6.343451192019286 9.956002265432664 9.152102566061766
Si 7.7251446874128 11.731132875003574 6.928670891557926
Si 13.557678684106774 8.66870681848031 8.865785301729947
Si 12.163226977644158 11.14762547323042 10.819786050392718
Si 13.022029772147345 12.157478837549462 6.764527235919688
Si 10.998270134727514 5.768830272127129 12.87526427886601
Si 13.21433956597865 10.975173408158454 8.778570126613912
Si 4.14112765866989 8.201638100362176 8.944427418657996
Si 5.85641242863538 10.804516329335666 13.290175801254057
Si 4.3368181949015625 7.020420527352942 11.018462460251904
Si 12.009326244518164 6.087919928880409 10.594284718517692
Si 9.06689286166837 7.99227832651084 12.861332536876295
Si 12.186666608625103 6.002802079646594 5.728574783579232
Si 6.339314571657574 14.359659296056083 10.349325757914333
Si 6.263487114005409 7.995162226730008 7.676041918441939
Si 11.186584878752862 8.22651031426731 11.495491496237303
Si 10.965925382421398 13.000955615751515 11.61049371278062
Si 5.165436526317877 9.223729732342456 11.440965601286576
Si 11.426986657099816 9.67845772107577 3.9041550031657257
Si 12.457362649019798 4.149496113502572 11.88850890173794
Si 10.016059578750179 5.991866254566943 6.895826182258657
