50
Energy = -236.70906921 eV
Si 7.4725890943417905 9.947289015148712 12.69534684089252
Si 5.952590450218651 7.959219532567659 10.322314614610805
Si 8.34150430038647 7.6588246148513655 10.787646778335242
Si 8.063521630919997 12.005583182089817 10.240804289078058
Si 7.41245745595545 9.50323669725718 6.162609062699329
Si 5.919829458077039 10.841520569022776 7.982368242880989
Si 7.648083308336509 7.8510018243856985 14.12147921141648
Si 9.57355306327758 6.78780651430796 8.983499265191227
Si 9.635876167922417 7.479903642808685 12.825705017621916
Si 9.15445732247975 8.134015250960758 5.3600819625401455
Si 7.468121866493685 11.831057213418514 14.326275884840324
Si 8.473754921764085 11.51783817350664 6.9343239263145255
Si 11.03943638446809 11.01621923960521 12.561170879791385
Si 8.279083400671205 12.972602588636127 12.376809607010571
Si 13.332382110604312 5.176678768407507 8.151362242805352
Si 12.368736949475371 6.9202001041406165 6.765475393834961
Si 11.210354884748725 8.224145488731605 10.235047571617716
Si 10.505886063340983 8.489799499049536 7.3492980381231385
Si 8.715449330348916 13.964202996314963 6.81469124473865
Si 7.654570751225035 9.171847318577347 8.908098001722221
Si 12.603576736171831 13.705152515942252 8.690873215286425
Si 14.951234986756505 12.616117164518169 9.535856083275858
Si 13.271089407213491 7.409216007411231 9.059126109447512
Si 8.062617164009934 7.133605496784323 7.197366014543005
Si 12.884001980921214 9.157133177218306 7.248667440593958
Si 5.050155384261302 9.367055544945421 6.312095266878884
Si 12.025176397047316 11.393278469248571 9.36027404979646
Si 11.558692016163105 5.618805746960497 9.61449201412438
Si 12.842376033725118 9.801355459967517 11.181722879926657
Si 14.294449437231565 11.690938524328239 11.691268103719736
Si 5.878038457473025 7.671773287902536 7.917016780025214
Si 9.867930310493918 10.51798998614089 8.698609412998547
Si 10.863460825074064 12.412064280561104 7.195753463361466
Si 11.53892822438455 6.435812972593335 11.858363870326727
Si 14.194580699975278 10.313097564489938 8.955273683610855
Si 14.85203304859507 8.492311458661703 10.504476200408499
Si 10.079446795625163 14.504878762811947 12.488103759758303
Si 11.209639301701836 13.32046559369395 10.741120289392649
Si 9.348931844340338 10.010996636195827 11.141071736241663
Si 6.9714783765882355 12.98295622032369 8.263893350579496
Si 9.591062844698767 13.622876511183009 8.995510745689176
Si 13.583732182007799 14.137768803837467 10.996842231080388
Si 13.520252924914699 7.635243034293396 12.613960860885784
Si 11.599374809585685 8.816696163171382 13.497963125467985
Si 9.877303186570446 12.404799906629325 14.194872292553368
Si 6.110719549103837 10.446515827530147 10.338083009568633
Si 11.154086621852928 10.416555588666784 15.138623097424707
Si 12.542120108411984 12.946794242520781 12.841706180497871
Si 11.352940479516239 14.283505715930081 14.504455512800105
Si 8.968202671804987 9.69676181359507 14.638437277235026
