52
Energy = -248.06873144 eV
Si 9.088708841138718 7.993509076274874 5.063884329442807
Si 9.350782100475724 12.153831401704888 4.028844707288624
Si 11.384874637334992 11.445312947337747 5.104938795717023
Si 8.544739306119947 10.293079702862121 5.310918075289328
Si 9.236544893748855 12.638981597582454 6.350028454492342
Si 12.628972242264954 9.51248015261219 5.728068087570818
Si 6.456292952644504 12.051918872186189 8.288836280593081
Si 7.855613567728527 7.392056327581619 7.03857631321542
Si 6.755447878405269 10.119868797889886 6.938787259970119
Si 11.57601018510272 12.363285701799978 7.3116880339794434
Si 11.360923773866183 7.353010829085032 5.674235011447453
Si 10.078617146901804 14.510080712427339 7.621038488504
Si 9.849800312446988 10.995818384442883 8.311317205476897
Si 10.402423493564884 9.374250826866474 6.6466621768203025
Si 8.828965804169806 5.204016729279583 7.227556710327778
Si 5.5573145470901295 8.09528717689494 7.4644803312218215
Si 12.472010035773087 7.64146860016623 9.32955322073667
Si 11.71093654128819 13.783695810091972 9.280387281836136
Si 13.186119099284461 10.15958812105365 8.010713972568594
Si 7.689283054220036 4.232372565782072 9.217489970941513
Si 5.037073035180913 11.201763768953322 10.015366665478146
Si 9.449113131297427 5.650939430451463 10.08306067491849
Si 9.011606873095937 7.957050056958053 9.135458963589702
Si 13.816379611887072 12.536183273128188 8.59492705464168
Si 11.44643547809866 9.769976025416963 9.726214519527367
Si 7.007961207070581 6.55660956379531 9.370455533864957
Si 9.293843740333589 6.195736571986692 12.57135299143346
Si 10.521181091605143 12.059425131144687 10.575886152181189
Si 7.356337437489189 5.136155905051339 11.550583695949658
Si 7.579217075088965 10.150239940920716 9.3691729050435
Si 10.68645029063555 6.625899936109328 7.975120891287191
Si 8.599820750347599 13.072741664520306 8.932491093039783
Si 13.116812915695307 11.36837659053426 10.617619323760495
Si 5.63910577341787 8.778543620797025 9.816088579406658
Si 11.882378522332052 5.312482728247885 9.924196436142127
Si 9.755171695763408 8.643521880919693 11.425537094666796
Si 11.491353155790254 6.860021292695406 11.764043565304203
Si 7.7467720401013525 8.017799536797728 12.724465093127407
Si 12.014979192086345 12.002244573922452 12.675977298969295
Si 6.537863666101985 12.06178460725269 11.710513604294638
Si 14.656114210283222 8.47145726883988 8.962307416622679
Si 9.731221133482467 12.71907078283556 12.969109203021564
Si 8.590028982828255 10.873781157370242 11.493953988660959
Si 5.866784699621001 7.119531384528017 11.55883311173394
Si 11.313184965794775 9.748554036625235 12.991003897341747
Si 13.639364544364806 9.100392302428144 11.090875037200393
Si 8.2580231748823 13.62397519462994 11.263459368498694
Si 13.043128569624505 8.067224710551054 13.16017634469138
Si 9.513439101783085 10.346676539401404 14.483922470892486
Si 7.2659651574146995 11.230359868170307 13.813405390994728
Si 8.828130123313993 12.551784394879883 15.1312364770988
Si 7.528928525591157 9.11433221218789 14.813730735149194
