50
Energy = -236.63502755 eV
Si 10.312428706373137 7.2218077381382235 7.658870571552243
Si 8.224379740623021 9.330451242948994 5.054377610977015
Si 9.976065655931173 7.660984805982867 5.278213632025022
Si 8.152851881506704 5.610382322706706 10.146219460079905
Si 5.746010957864669 7.156029329364303 7.159965656364269
Si 10.513673303529114 5.600391325839648 9.526954693300215
Si 7.838983404208292 7.118326160021727 8.285074219144134
Si 5.837018732759536 9.149575224280095 5.64250519638686
Si 12.45512823890577 8.433099377391988 7.7486773862654585
Si 13.784920803197892 7.060507391564492 9.160241841851523
Si 9.29106626912841 11.475440120544686 4.935791865683301
Si 9.982815131360145 9.688068049519787 6.745835158918864
Si 9.486750490871623 7.842508489962821 10.12375673453079
Si 12.06030835080215 8.898977877211632 5.386225414041076
Si 7.283914124703459 9.340025350248558 7.62291289038927
Si 9.223468090075043 6.350557659064531 12.157942190924592
Si 5.195653132669358 10.522375814155927 7.704017259663789
Si 11.523824104231084 11.192304396669144 5.63039116165978
Si 11.312836914712223 5.192880171050975 11.887344676040394
Si 6.705157621004006 9.048245358683776 10.99661074729481
Si 15.00423426642521 8.878147103327054 10.312004547286017
Si 5.3423440460268035 8.590557958203872 9.084978472297408
Si 11.890954255890076 7.462724438881532 10.55008601593832
Si 7.730210696391585 13.291516233970192 5.22182986444908
Si 14.094703082847348 8.521654237492413 12.407931845278313
Si 12.173139371944284 10.593689205934119 8.724614137243407
Si 12.701039328173911 12.464700528720986 7.297572602781627
Si 8.446256060950919 12.270273011409307 7.26021734517389
Si 12.158870564057178 7.222334647478165 12.90181032289064
Si 9.050039141582753 14.612470046584738 6.823175168771284
Si 7.993546089162539 11.17919835731082 10.456109335327275
Si 8.883436307736034 8.945980845305948 12.288072388697078
Si 6.623845926103489 12.14062218018123 8.788212929089578
Si 6.423012508460414 7.700665442278431 12.96824104950852
Si 5.62128326275907 10.150176559232683 12.930201094763426
Si 9.84543452586839 10.149175946624284 9.146833078549022
Si 12.893179266537977 10.428484689488696 13.346190580227788
Si 7.772623521427542 14.220949545451445 8.863768271739884
Si 8.696573533339695 7.477314333606303 14.226264062975853
Si 13.375202756436254 10.520911830395946 10.813720354435004
Si 11.027425176906215 9.890816231269486 11.636845944451144
Si 10.56699658763396 13.182604549333544 7.9913994005516376
Si 13.436110795650261 12.679332752455753 11.856999795877101
Si 9.541080267120014 13.151919861124822 10.115275968724504
Si 7.921193646406148 11.288532114487444 12.845166895165363
Si 10.904439518615593 9.038733906829751 14.06179195035301
Si 7.394111595718591 9.550728016856663 14.461732597655807
Si 11.056192947780433 12.390367626472027 11.756827697036101
Si 12.198764587640104 12.740378998126797 14.040479017523882
Si 10.130439403367662 11.390865509719431 13.785466940920415
