55
Energy = -263.14369066 eV
Si 11.420698233477967 11.447005212403312 6.910213822749534
Si 14.534337310843227 13.684123742685818 8.23933669218883
Si 15.157653962584929 9.470315875346616 7.394734904334612
Si 11.130291197500975 15.709455878741599 7.318976435393512
Si 12.214986659502607 13.628098942285055 7.590243905079478
Si 7.948937111601044 9.34790318523502 8.296485720309704
Si 14.876883362681363 11.386054032981969 8.757398144297659
Si 12.872605838239794 9.829269718651897 7.796166836250016
Si 9.75640024660876 10.889143468849726 8.579055817133035
Si 14.616330629118782 14.053134384662885 10.596387178496087
Si 7.467909979165643 10.89053317818788 10.056023162149009
Si 11.695590984153368 15.74204872879611 9.636029725100116
Si 11.755097063779852 7.9587248367624746 8.878414131248944
Si 9.467167450643679 15.046246057082195 8.881192728534675
Si 12.617848200997807 12.041438183569023 9.33860353657549
Si 14.978167580442328 8.720282345714134 9.696708316116466
Si 7.612977613267961 15.285640652239177 10.331506355180954
Si 8.964894701589014 12.93823195475667 9.722050663161163
Si 6.429694402772189 13.06749441570093 10.106161651737827
Si 15.387234084200479 10.636309980026235 11.08539672627469
Si 13.445416095884724 6.860200413637159 10.281584073927922
Si 16.34581435512038 12.759775279558633 11.555168859944995
Si 10.980186773294689 10.6408893352505 10.744264416491493
Si 9.644777993778096 8.560783699697986 9.786605645229034
Si 12.215486513548402 13.856616621278121 10.971902468896351
Si 12.926411114382855 9.281896500627814 10.765143658146993
Si 12.004880843179134 17.365964809388466 11.397342256674794
Si 8.000009263283431 10.512666356022832 12.377793633375715
Si 13.784716285446203 15.82836361051752 11.952256368215977
Si 9.623609276299897 12.292521490560443 11.924125366856611
Si 9.747638115864861 8.941482972382058 12.117831671471976
Si 7.081885259973422 12.825957909740204 12.434100517821328
Si 12.933038667424015 7.5280058201575955 12.520570419032877
Si 13.814425445587165 10.00715606169119 13.086588257900699
Si 11.181784149801766 15.41359954860751 12.529922925550714
Si 16.268156999960823 9.50651261348961 13.1971605691972
Si 8.727796055182614 14.56945799442321 12.511158292405202
Si 13.332861448563243 12.340099279480436 13.651938814105257
Si 11.461325901817679 9.90485392990012 13.756839397484438
Si 10.807703959042923 7.445263140727808 13.642532446357473
Si 6.507724134441693 11.226829994877939 14.13741240453482
Si 14.720208055838116 7.784646746693102 14.047343349149457
Si 10.613647955231716 12.774986017688025 13.97462568810664
Si 15.881229737252998 13.193783417578077 13.805010071024927
Si 14.091995908080714 14.666882632258432 14.02388071739541
Si 15.40486865802205 11.162719356375028 14.812962661780787
Si 11.175450307442551 14.899490036140467 14.845901521244436
Si 8.856328839579703 14.483561512858797 14.943690022812532
Si 13.415512400775494 9.051611760905752 15.555148192590938
Si 10.55774176078118 11.067601281258181 15.762191672092074
Si 8.49905082991791 12.139882456795588 15.154271354502262
Si 12.81892414393085 12.044096864938393 16.002963766629456
Si 11.074655850382037 8.600361495325114 15.800186685054161
Si 13.056417254265947 14.472370648989612 16.157560347495036
Si 14.496064985482798 10.621105567533403 16.96438698622257
