5
Energy = -20.36689215 eV
Si 9.4783700974728 7.732683027933606 8.80929438686042
Si 7.64549539618297 6.491733152468805 9.534092934745443
Si 7.123263390839157 8.468385958016095 8.517282756381425
Si 8.369526505939222 10.353084293132262 8.219111307730254
Si 9.166849790404667 8.7257358937935 6.73258741109302
