53
Energy = -252.71919164 eV
Si 7.09433143164737 11.144827959083056 5.375151439160106
Si 9.546808013846213 10.589697396341512 6.674500232550548
Si 8.562805872291898 5.7246256206369575 12.14141667410208
Si 9.81331013147558 11.836270778870016 8.702726230376781
Si 7.8829222682590565 6.895707860249877 7.8128741479954105
Si 11.389983971804618 15.136761157193432 8.397821460133192
Si 9.189312275197532 14.110533253164467 8.182305561215315
Si 6.525366504198183 7.151485574846645 12.10539354617453
Si 11.962814218078961 10.544521573180557 14.416483407231318
Si 10.207553694080195 7.9859817357183855 14.367565844334129
Si 9.292144955299626 13.476961781378048 3.9530882270503263
Si 6.838925664123065 7.821677739216395 9.806157515858345
Si 11.938697014664998 11.38129927434351 9.579951844068363
Si 11.856420052139116 14.259356262904491 12.926977671602328
Si 10.105083342869946 5.544115038681454 14.08269476044623
Si 9.665924913972667 13.558958703883285 13.955677819216305
Si 11.04271394203173 9.891622372981994 4.851299632670826
Si 11.657619996748865 7.452528979217063 10.326169360804073
Si 14.017838632402935 7.836924243587062 9.821072145096952
Si 9.24246516094878 10.369019429576753 11.773607482057377
Si 8.7473294640948 7.914465960783509 11.332430959588171
Si 7.891472145874072 13.270319461465961 9.92264611945856
Si 13.207351867408105 12.335472988822278 13.576306977690658
Si 12.293181754405499 10.821097422736203 11.899544179335754
Si 6.965936197583565 11.332627465632367 11.801932729201347
Si 8.589098901084341 12.897482785296308 6.138438192962565
Si 11.667426790369193 6.260301817180221 12.416870109641382
Si 13.132192245088927 9.610858727891497 8.478422582417508
Si 6.564301452498027 9.972599586582941 8.8940865681703
Si 10.951531953744782 8.788023050480135 12.202366356142026
Si 8.838112452847607 9.690605985581836 9.52268780306523
Si 14.023879712212763 8.768083845146702 14.361444399538097
Si 12.518346362910043 6.672629273340611 14.835243191651022
Si 14.760793848558919 11.399338180882207 12.037063982993466
Si 13.97426401552406 9.065710708492684 11.85302631493203
Si 10.855459190336862 12.247815254920468 5.291440964604577
Si 8.324104744429027 9.387736509952553 15.11894552524489
Si 14.0028488907168 6.703488409266999 12.962513151881764
Si 11.989760781687867 8.71255042491413 15.92783230006348
Si 9.991692306973057 7.838383023075846 8.553183007734205
Si 9.67379368991754 11.13524664884418 14.141604514967904
Si 5.851783877157995 12.052047430938275 9.832521169581913
Si 11.867743350297376 13.991896962127585 10.499450723190044
Si 10.252489015127146 12.599025531993822 11.762101473537653
Si 7.209249670172578 9.27384055692597 12.984961280247841
Si 7.899049236145268 13.48772673251778 12.29078768847842
Si 13.83402986477885 11.852216484030876 8.003012324695188
Si 11.433828796461706 8.984410919902304 7.049326132208653
Si 13.850913506778294 12.734058791331147 10.236992592056625
Si 11.804146106762325 12.962566164885036 7.4145617728868745
Si 8.254743745876429 11.334386364666015 3.3631787900094574
Si 8.720474093879865 9.317033832408196 4.493510734597981
Si 7.533002603027005 9.180450652742062 6.856005075892563
