55
Energy = -264.00384804 eV
Si 13.162981155285443 12.011895073742792 6.370794372478872
Si 15.02280202134582 10.43948183823596 6.718203230484684
Si 11.428345789275879 11.458921438248009 7.824500699170703
Si 13.238547050325131 14.102695882416851 7.597492732077109
Si 11.35985444545607 15.527074213145006 7.7867807786144265
Si 10.047597411600332 9.603110015518096 8.33104399603202
Si 13.64310767418901 10.727394124893687 8.624426428892077
Si 10.367469601319478 13.48350462242399 8.536784375156712
Si 15.806403456980538 12.128945416085589 8.235270721514723
Si 15.462436781863877 14.496796450528683 8.307806863463547
Si 11.230372707289652 8.352304751191422 10.05848089965432
Si 8.038218980400002 12.93659811048414 8.66906284884124
Si 13.297056133690607 9.436984864492954 10.829526922250425
Si 8.308625277441102 10.67932243369356 9.553253425994264
Si 13.892706263000262 12.945283698867565 9.627039968817131
Si 10.586052627519988 10.641551150821133 10.52499961828041
Si 11.531935213683482 15.20208695692815 10.132873922752847
Si 11.67009404916658 12.745709431680352 10.780684631039069
Si 8.199750070916805 14.032897794791381 10.733254201677653
Si 16.487603149285732 11.877929306222272 10.49770500935292
Si 15.29901422622651 14.495426294011784 10.78337320544021
Si 7.32583048727992 9.023434000652705 11.112805284888053
Si 9.546962783428416 8.25098184496564 11.77055467317517
Si 15.727777923837657 9.821782903502239 11.26488333241528
Si 8.650712290384863 10.705415733328401 12.08085776690218
Si 17.118789495012194 13.530547992784753 12.069218943366998
Si 12.487885970611625 16.70696992477326 13.544829587035958
Si 9.51572860178144 15.885068882680413 11.313638282555562
Si 7.676455375769154 12.822982773989818 12.673633305411393
Si 13.27598174800528 15.173847786197843 11.855072498870248
Si 15.415171099527516 11.967424942541836 12.838951918247542
Si 10.050917365054787 13.63589945958467 12.319142438829664
Si 13.46297470988639 7.772859978994061 12.636005033951804
Si 15.087809907626703 9.293516077560533 13.479295819518919
Si 12.66247857349371 10.19118228694057 13.115833621098917
Si 10.249873414849397 10.035225234269266 13.817796919175622
Si 13.256605801881575 12.841485992355341 12.612844710176823
Si 10.317632650185306 15.756545728186955 13.592575932491759
Si 9.571842976570792 7.780527555691866 14.169091405922822
Si 8.925854864215118 13.581781956086171 14.51230385596242
Si 14.853503239388814 14.017160073184868 14.687763256292882
Si 15.641058686520706 11.592818532903342 15.22695351002496
Si 11.936327313726599 8.112096940798729 14.36723627659206
Si 10.257532496568633 11.862394974553574 15.38051723649275
Si 12.336882954935634 12.918871264950443 14.79399693183156
Si 12.836251254639787 15.223188123531774 15.405451164188998
Si 15.631778743099204 9.290956499302927 15.800930289220108
Si 13.319912857830891 9.794282297772229 15.524439366722383
Si 9.070594105397639 15.62672724689539 15.642803046527442
Si 16.236997295525253 13.456791211259167 16.510886699399133
Si 10.862669209930912 14.372614315668958 16.807899206692664
Si 13.967371436426356 13.43973935477626 17.17289930667209
Si 12.5233887484448 11.589051165421587 16.885966842611147
Si 10.353416997983679 12.144197409256527 17.722113175621143
Si 12.767525618524878 15.459186750824179 17.770920593737173
