54
Energy = -257.80828202 eV
Si 11.559750795139806 13.749430436242177 7.4943409412482165
Si 12.837223361841513 11.926032524351271 6.707764669642091
Si 9.368316507416413 14.602451436881813 7.339284065589759
Si 12.686070434241588 15.580125837746479 8.503502786510966
Si 9.666678585754632 10.424301599925295 8.716972908758851
Si 11.898528921618476 9.835042686488155 7.6280389647289635
Si 11.919141810279138 11.82336405423039 9.110255138563353
Si 10.343082726349932 16.087712329362652 9.036795887176579
Si 9.599730908297243 12.825301914800226 8.915507397464738
Si 14.310512239189652 12.357840650126256 8.546452204386965
Si 14.4841911187307 14.437721919552851 9.648873671052005
Si 9.209494897943333 18.028247939704958 9.853980642916662
Si 15.734419424002185 10.659723931302842 9.28438126767165
Si 13.564875459883059 9.732769760173877 9.445924299763549
Si 13.61378869851512 7.7222322123120986 11.093641957565946
Si 10.092015203582223 10.023312473568033 11.029080646302196
Si 11.90405905645616 14.70203327146348 10.660981201006853
Si 8.234638372068018 16.196724590841463 11.143847484651722
Si 9.513573647078365 14.237873669424806 10.771031139860666
Si 13.289556490596736 12.822489874202413 11.35719950375693
Si 11.219164995294024 7.891431654281297 11.464963969125655
Si 15.206157117036751 14.663875123859503 11.870813015055191
Si 10.352394105749632 17.53463137836406 11.844441684047892
Si 15.36587909414016 11.498436482400953 11.495481085440206
Si 14.820293780516312 9.437389708709116 12.65382077431038
Si 12.344374402820552 16.3420936022575 12.325043209167601
Si 6.705639846888943 16.005458386099626 13.004551486020706
Si 12.56580653222136 9.967050961578066 11.629908651030414
Si 16.142246544120432 8.032386574002807 14.0964707990672
Si 8.851996093432108 16.931283248791885 13.491876126527114
Si 11.015572155269634 11.50283266279943 12.822616167928247
Si 14.645037552311745 16.743479765846228 12.811182937517895
Si 9.91518958400472 13.70956124959324 13.015027265181477
Si 16.80151507726049 13.085223898102914 12.642426558549547
Si 13.533929339237512 7.4877038445018895 13.613279360001833
Si 11.41057505047641 8.844485610407322 13.647836432993454
Si 13.366397070523474 13.098801341760737 13.777021191426634
Si 14.146848117469954 10.721726862911954 14.634097959382782
Si 11.86979701960002 14.950514762820266 14.170073819635395
Si 9.215126652508973 9.807459725876784 13.319326766829997
Si 16.38489621252047 9.939894926566554 15.685853219576922
Si 7.858363323124717 13.942899206219993 14.235845633461961
Si 14.800262994426095 6.36860257792435 15.244470282229084
Si 9.688011515838557 15.27086204724831 14.976062779503044
Si 14.20198773296128 15.456984100722108 14.780704415561194
Si 15.551386926627892 13.552519737192359 14.700600596447396
Si 9.221926523617991 11.926067868457283 14.576780951238785
Si 12.267058293105885 9.681790577311002 15.774531789614368
Si 11.605410591943544 11.993846855504097 15.202378233238996
Si 15.183458956091226 11.946151727298119 16.44750640546342
Si 14.402767171862523 8.529081692653667 16.224657776816787
Si 15.445353765762599 9.938995657609087 17.98329409306333
Si 12.962696300937766 11.7411546429646 17.233556061643103
Si 12.91325566938447 9.491013192734227 18.126066492357936
