52
Energy = -245.48463859 eV
Si 9.480131634764488 13.886124486449521 9.06867692927708
Si 7.12689954708621 13.747756581991982 8.286793591307951
Si 10.662074857044525 13.11618848958044 7.0938254260952505
Si 9.308769086164087 11.50293404693571 5.884062538721833
Si 4.8081117575793275 13.05483576574645 8.881151272606823
Si 4.438431725140116 12.803113084227807 11.276915990948662
Si 6.35569009508683 14.386981878066138 10.491130426823988
Si 9.06769550053243 13.472812928604643 11.836705767360279
Si 7.545063908663812 11.53375674738686 7.461246365867363
Si 10.509068890284201 15.096018684485859 10.808557872933378
Si 12.570175374965027 11.85013227267328 7.799246353577812
Si 9.299970147832296 11.582543763606377 10.140263224856161
Si 4.820448428996439 10.626351032212195 9.968659285387051
Si 10.600238431163925 9.382835126166235 6.293705602671912
Si 10.263503164002772 10.84804561567893 8.129277851283435
Si 6.880433124570883 11.896225718315424 10.100098402073415
Si 13.367555624128077 13.5221352979398 9.497504405475672
Si 5.787121608494416 10.065861530789098 7.822847956660822
Si 8.590925449219425 7.93586853996969 6.54187285030468
Si 10.89383118812051 12.604736920996697 13.179438816942472
Si 6.818048120196255 12.755501840664534 12.388356578577223
Si 7.411597457833882 10.55394185589839 13.319447116358322
Si 6.096159225997459 7.9181779578337235 6.8088336820571325
Si 11.391824955291773 12.76191945537439 10.690124342820177
Si 7.734241103480704 8.812046450263821 8.573592122221699
Si 14.761629859573038 11.371997817354012 9.014650491821284
Si 12.52908571524494 10.034196385594065 9.626203691007207
Si 6.563764466849098 6.52803289752551 8.746455889403402
Si 8.69920079786465 9.742217387334415 11.455509542236616
Si 6.205258207753669 9.487542683357 11.595629893967
Si 12.964337533271504 10.124490366532351 6.009943838727368
Si 8.841950929355395 6.105673506667657 8.055120127306097
Si 13.184760248657552 12.469436653620804 12.418132168937447
Si 10.310457966624803 6.876207744486665 9.90854588098466
Si 7.406034416351581 7.640253121500266 10.759374919780038
Si 11.209672117540869 7.415275847366276 7.742013089869787
Si 11.384487785134786 10.224784807795654 13.26274019915055
Si 15.179391002471975 12.78440062303298 10.92458561909109
Si 14.255041996424819 10.432329710029704 11.299739061416911
Si 10.493692413350837 8.623336240604832 14.862262922580816
Si 10.960872868897349 9.046488106338398 11.261553826637668
Si 8.867895171232899 5.89835632182733 11.565254726120735
Si 13.228107036143218 8.595142923108801 7.860470526716143
Si 10.980280555956593 4.999771048704623 7.888076830394982
Si 13.894708511245769 10.595565106932487 13.705375124532289
Si 10.40414209787142 7.280417424344799 12.850508018169844
Si 13.7828827511795 7.096182034301725 9.522218184420947
Si 12.83571735881995 8.55743782217412 14.448090670037795
Si 14.49185518605966 8.04030439510497 11.49086936517046
Si 12.230389436053764 5.393496799975934 9.996440286170175
Si 12.53858052168088 6.515920747233611 12.15933485460027
Si 14.386690922003638 6.899246043290447 13.561346300126546
