55
Energy = -262.5687896 eV
Si 11.740487323513348 14.762865511597404 16.329607882162616
Si 15.030692229010725 12.021898859195058 16.386860596576717
Si 13.87097980936949 15.809430231912259 15.964096845116643
Si 7.697182178281004 14.93545218959506 11.872899564272535
Si 12.784203787551482 12.643977992167093 16.2632049073357
Si 16.040045203873916 16.466419493167095 14.712464195840528
Si 12.167710946499092 14.8398387328891 13.979372402489474
Si 14.405245016689106 10.217694372393105 14.867608024930647
Si 13.822676195720062 8.119763082208767 13.816401694282392
Si 9.970565133887488 9.127697590428804 11.955877174623595
Si 17.118043889733308 13.222201662671171 16.47449045880811
Si 15.60027657393024 10.915721477043869 10.895738647302046
Si 10.884416617513072 16.75796058358897 9.018022888794004
Si 12.706180045844404 13.541744915611384 10.731889052955758
Si 7.034918036731517 12.471457141859112 10.98897591061845
Si 10.03887683328062 12.374061353006597 13.717186496142956
Si 7.567721074525022 11.499890191748557 13.788097882379844
Si 11.50533357961209 15.787468448333819 11.11313581053492
Si 9.484920700597025 13.44616412628569 10.832544176766412
Si 12.485990560505325 15.027187137315554 8.689150738994792
Si 11.630106749584408 7.372588007791902 13.395197346193042
Si 15.342627030019186 11.628529668668902 13.143909721515472
Si 14.088390482879712 17.815522093890387 14.577337336144874
Si 13.595095053866721 13.276853166499551 12.913482936925062
Si 14.575481687320208 12.175542763566654 9.151750522755645
Si 8.826878943542093 11.79413416151537 15.875110802048486
Si 12.325462334238809 9.676726642786704 12.447712947330627
Si 9.949843774000156 14.739235104574492 12.85856498930175
Si 13.509549084336426 9.860080786915697 10.401766314596205
Si 10.287069868167352 10.069517033821876 15.051628830833568
Si 7.388805610929467 14.387718751486767 9.535799721199743
Si 16.050238142586984 15.44082896701403 16.886279282223875
Si 12.783194271945595 11.469729024216969 7.399316712548061
Si 14.828185211821532 15.036523995642511 11.73129536995412
Si 15.687315338397402 8.60332172687422 10.09248044117348
Si 17.33358117492131 12.801304649179073 13.983551336659017
Si 14.042426787705129 7.63713840171003 11.501817464650754
Si 15.085404559783031 11.028005983693554 7.096193774736802
Si 6.244372951833436 13.44099005901426 13.184030144569553
Si 12.057145482761902 9.412789305370726 8.54672257518625
Si 11.329225055533685 8.055377474524674 10.404693160390222
Si 12.270560077936318 11.454688345802152 14.041869196048314
Si 16.76091100292249 14.932841515178636 13.062831460959181
Si 14.688062173671133 14.517009186851244 9.40176727840255
Si 9.420079922317008 8.043076423762564 14.040512433914422
Si 9.004068256654332 11.282727417810284 11.817414789278802
Si 9.616641860895522 14.711359163284799 8.78775469245833
Si 11.594329469591155 11.63123607667498 9.717801250842111
Si 13.234550359843716 16.5514486144558 12.645838464024875
Si 8.32171452606826 13.886882157067715 14.645270431727596
Si 14.363857011772229 8.94546998518908 8.056059875468273
Si 11.217826323036213 13.169446461889658 7.9068997557332406
Si 12.230374753189606 6.071104003727283 11.399217898248423
Si 12.294851681728646 10.314663868246456 16.259192360656538
Si 15.282967247530916 13.994353918283236 14.858963030372195
