5
Energy = -20.34779901 eV
Si 10.237869373760633 7.467051824882234 8.93217082319172
Si 9.020788037489677 7.837215400143671 6.941592931566674
Si 8.785019310216136 9.160290225970906 9.144189066005044
Si 6.7255408463482755 9.874497787670121 8.610729083613975
Si 7.058738458668083 7.563288391014361 8.208042873723112
