55
Energy = -263.14621617 eV
Si 10.621725586284217 12.92474192266911 6.486385773288076
Si 10.942062323600469 9.074634759915446 7.3327472482842895
Si 11.260499741685766 14.992193108780413 7.483096737713872
Si 11.88580986078251 11.24177303680886 7.583184420586338
Si 8.393193134530797 12.810210184694855 7.29453769810993
Si 14.197326191338284 11.419226647509621 7.974423983264381
Si 7.249128519356353 14.834750995887543 7.750368512001662
Si 7.169588751088854 10.773614809799048 7.733635059439174
Si 9.313601142680643 15.729608657899131 8.635637162378877
Si 15.895998504745016 13.13039364208815 8.322168842125633
Si 9.030198249726247 9.628875241527703 8.660651425536972
Si 14.633052222578709 9.324673065174025 8.899869143271955
Si 12.489505351484677 8.311174531635434 8.997771630840402
Si 10.436841922860841 12.906863270323756 8.955776225334684
Si 12.267176470913121 14.30213472633664 9.481227632304522
Si 13.838874201817642 11.124470431528408 10.477530216618456
Si 8.135761117430791 13.823635206953112 9.715089787642343
Si 14.345450762763052 13.456911895804126 10.136581082350796
Si 7.49289352346899 11.58802699606276 9.9092571572321
Si 8.888553322197794 15.650516077509021 11.134736825381427
Si 15.88780191921784 9.776066968295273 10.894769596757538
Si 9.864452657120644 10.780951955613958 10.71131593848369
Si 16.490053080628286 11.960466720572114 10.312631340386487
Si 12.765118153812084 7.1154909178904004 11.02707681473323
Si 8.575266943162111 8.580708034558288 10.78657563926655
Si 11.211533663543502 15.2180596719037 11.310967577241492
Si 11.987913230936101 9.654375716510787 10.85865587176226
Si 10.95434290317401 6.810784014167391 12.462314521709033
Si 17.45613904903749 13.249851597503925 12.078202192381537
Si 12.959617704876518 8.714100147114202 12.889740235504728
Si 7.542082861497029 10.32857390915717 11.877070938188231
Si 8.625316037004824 6.796858834417384 12.354555849083576
Si 15.395420906379664 14.38728476814657 12.064620741771524
Si 11.050647182812808 9.871923810255907 13.762524994660371
Si 14.808665818880502 10.2078975330873 13.04628494830102
Si 10.046816569561754 11.85670437856996 12.805392019933434
Si 12.407261298524837 15.821363577466986 13.17760168302407
Si 11.729929764809661 13.478250323917225 13.122874477070102
Si 12.2832290489213 6.931291274171661 14.382155281130604
Si 14.775209395677145 16.100837299907912 13.551013105544627
Si 8.838441517307114 13.986500846357382 13.366239846303198
Si 16.323754110803833 12.328644805558659 13.966850689895084
Si 13.681329904348319 12.283666146100284 13.844862941765198
Si 8.932498623346557 8.623325093144002 13.906461393210353
Si 16.037116935509793 10.18130222858662 15.100165078224471
Si 7.1300618489804455 10.198174548104971 14.185124713137832
Si 8.581078920206648 12.031133149950714 14.733444526736637
Si 10.60999994229041 15.194190052872225 14.579636096669883
Si 10.577850801753929 8.159824099432576 15.574370618809244
Si 15.075355822793506 14.108006098635855 14.818672183396687
Si 11.498441296872002 10.23552109590828 16.10101771832595
Si 13.674965822135638 13.158611240683875 16.446859111880446
Si 13.80948210503055 10.880497731706438 15.827765486869277
Si 11.428908771453374 13.471317887153866 15.86154257547149
Si 9.955000397093801 11.927360224508474 16.7043125995024
