55
Energy = -263.02256864 eV
Si 13.889893528275659 12.877352547428636 6.418709893978081
Si 16.10417802759009 11.946560899397634 7.041964159067523
Si 13.313954036857064 11.588929837969834 8.344574649228715
Si 13.662240402816797 14.132369792111595 8.40282182120103
Si 15.383929531841725 10.579671877765854 8.84313923526374
Si 16.857524233205886 12.741200619203232 9.13069663667885
Si 15.60714993816666 14.724706789777356 9.597423018118155
Si 10.677037620229832 8.463956934128797 9.670479345553348
Si 11.56108573085566 10.676951400544041 9.7478639578743
Si 7.481808715293941 11.11058737122937 10.132877877646845
Si 9.569117361881627 11.968634341592237 9.577371010668454
Si 11.888482009139038 15.196215086530039 9.588335935485688
Si 14.465800426506625 12.629033906353348 10.360233732433718
Si 9.757647512051825 14.237458390111842 9.781591776898987
Si 16.527559868140592 9.062637500040776 10.26932294176132
Si 11.494755029050147 17.458179763927134 10.4589377674245
Si 9.183936187085289 9.702842904857604 11.100900101530366
Si 16.598209486034417 11.333267329423146 11.056351551563084
Si 7.926333391963703 15.211780226676087 10.884048874602271
Si 14.784765262078032 15.300063507752974 11.732638236859795
Si 12.284413752597303 8.383531790793018 11.375123331880836
Si 12.740955705537813 11.509343511574244 11.650090224794608
Si 8.309822890820302 12.917776734643246 11.57692683710889
Si 14.62477798505914 8.395816692827282 11.605640336914744
Si 11.83030161961187 15.036640424583805 11.916272309762238
Si 13.277207960502952 17.114388613895343 12.045644994545475
Si 9.831519098575564 16.376382542833788 11.870563620441983
Si 14.219310470783402 10.277171660510096 13.010582223541435
Si 12.164765215595049 7.306378093249592 13.489194765085866
Si 11.351527887079897 12.812697243138777 12.955302267756412
Si 15.907445699152628 11.991288926074803 13.244825241533901
Si 14.563027172532014 6.769580938774478 13.473271521853837
Si 8.947714469783344 9.609473809794526 13.40815646851963
Si 14.115372819852066 13.618956598419395 13.276888183286937
Si 12.839464509561965 15.756271803920773 14.148884260127542
Si 9.231771409900546 11.93633104564028 13.522440067606338
Si 11.01564753301982 9.116083164288632 14.32438647905674
Si 10.404459250869499 16.459019710294314 14.137943768603476
Si 14.108279888556671 17.836714745939435 14.23641164608613
Si 13.960320870988097 8.588894404369105 14.808631004014194
Si 15.590489757048305 15.859104340834891 13.95327832770614
Si 11.196760352244022 14.099307718221404 14.983857140453956
Si 12.739940392083176 11.989668453161638 14.920241291853298
Si 15.316822298140345 13.993109384688411 15.417571732545042
Si 11.95547721595107 17.596254122058173 15.628581119689057
Si 16.815621173570864 12.111192442401848 15.50920338318637
Si 14.75175902464323 10.921024728338494 15.595312647268356
Si 9.068542790466001 12.944392713810608 15.70357847827807
Si 9.359146631372441 15.364972470698044 15.94130459201558
Si 13.197794019625732 13.803250211275211 16.54266451148757
Si 11.763561065744195 10.149475441129088 16.290448938306074
Si 13.815482940030792 9.225009481040074 17.063725628533632
Si 10.9134555106007 12.254565660926847 16.996769641128477
Si 11.452121246092446 15.601438699041664 17.0660955497699
Si 12.027516212393152 13.760095789437084 18.59791008086719
