52
Energy = -248.12204101 eV
Si 7.7024615995023105 10.363328141176181 9.81837018262039
Si 5.873641680945618 6.9544135842954855 10.797112798134906
Si 11.838817382804162 7.6933893561088045 11.707764473201658
Si 10.787171564031574 7.318547401298837 13.888354632604424
Si 7.8359438546766995 6.557034117266773 6.581685179926547
Si 8.543999575008243 7.6946382716848305 13.04984991028147
Si 12.972285940351261 9.82950431704428 11.438747489628588
Si 12.316924011546732 13.17341547724949 11.30685846341954
Si 8.360325155252948 6.815818508511038 10.505063663680932
Si 14.133344197845686 11.789828244255464 10.328586704827075
Si 7.0731138071898565 5.75084139378515 8.672448473506487
Si 8.153903235591144 9.793676646695832 14.231129788229957
Si 6.985557197150547 10.978540309176168 12.517547607956617
Si 5.556031278100648 11.30624945252648 6.073990526295862
Si 8.595597353608088 12.730232628813361 5.111182248173084
Si 9.325883526028141 10.635904775112088 12.142749358251898
Si 13.415131183544338 11.504105665514862 7.932749148325281
Si 10.930651604277301 13.282507236689108 5.030328574743791
Si 5.201674335946688 10.744205312809607 9.656944176162506
Si 9.473550258071757 5.1181024570709415 12.098903734552007
Si 5.233212471796915 7.873425434258958 7.461383581748825
Si 10.80629573108257 7.003915223186834 8.286230896263067
Si 6.335067338941078 12.546787197484925 10.759626370768466
Si 11.771381846285538 10.993008036980529 9.741728754039423
Si 8.285815777382219 12.631139896757556 9.346079295284488
Si 7.789794276108556 3.4694649106447777 12.034998950333874
Si 4.742026343372476 6.017308641679237 8.928033915021956
Si 5.945154715558824 7.333035030821446 5.227630691682084
Si 7.515126445442128 12.30247545035353 7.1412439824689615
Si 9.9607712529865 5.452440986225138 6.665432834897195
Si 12.353087615915628 9.415649514865475 7.554496189824905
Si 7.069508931993488 5.855998147332632 12.513533816235586
Si 10.955658614958548 9.069614914119429 5.6632720429300765
Si 10.575951359157814 4.165556661277777 8.724243612298018
Si 7.0045045210677195 9.571019906093985 5.091969917266553
Si 9.702856667526818 11.16001808771523 6.960230523656118
Si 11.818265743444917 6.781441160675669 5.983473090096714
Si 10.623930281616651 13.097774297869714 9.566644157984822
Si 9.796843613084024 8.661523854245697 10.943568687387966
Si 8.423707549890144 4.17390172371837 9.82496046275508
Si 11.447991005448818 12.693077897779816 7.3691125964766355
Si 10.32101391047042 11.005682970130266 4.47823907141677
Si 8.132674612610963 11.017044823413515 3.4977413737660763
Si 10.055416943955287 9.289011622983121 8.60217907853081
Si 11.570050678835662 11.267801102601343 12.617190657737833
Si 11.004989965376325 5.859917247849143 10.43277815494502
Si 6.658601531739853 9.833497206557151 7.678345818540359
Si 4.155118935868694 10.057658691335936 7.635831817341151
Si 10.519828203937783 9.802961476639425 14.207485957017862
Si 6.036187940757594 9.250349926794813 11.235407525697344
Si 13.180472401601175 7.17303495014584 7.932060805618126
Si 8.727715195600371 8.735210875666258 6.5995094007343935
