55
Energy = -265.05171144 eV
Si 10.645685724127004 10.010420583578624 6.674622192699942
Si 8.97609883040968 8.317074397809614 6.971152077902391
Si 12.645502889385718 9.882771435532385 8.070297777452605
Si 9.378242399040323 11.873028059139672 7.4499293533072395
Si 13.19037410132991 13.734504142784143 7.962145333472286
Si 13.166106048905814 7.585966323116909 8.314378436267988
Si 10.803882122250782 7.997870820732238 8.399729871449344
Si 13.950546787147086 11.728518100387294 9.01489333726506
Si 16.22595009094611 11.033797429650155 8.898424445102801
Si 10.897379766785178 13.440065457233398 8.349611086384664
Si 10.622589949023423 10.60061626178945 9.306734323727499
Si 8.132412225094745 10.938639498275514 9.241954826716439
Si 13.516005880002176 15.210003381030377 9.779075387574544
Si 7.188247000212666 8.813899233960928 8.677736804693284
Si 11.871508355921495 9.82582680387525 11.634250538011825
Si 9.151330315433 8.630718264715494 9.958373847063916
Si 15.242663998483497 10.021028092429862 10.81315756139817
Si 16.485210737706186 12.971748766122632 10.23809368697748
Si 11.668973870785996 16.787244577482802 10.068202292984012
Si 9.983562838242817 15.11248895962562 9.645319480145575
Si 13.292151166310715 11.764322035704197 11.463462871966295
Si 15.98320492017237 15.39836835928364 9.999151771753954
Si 10.969306115108877 12.635275760232103 10.67301245994754
Si 14.680047520952211 13.975133921045238 11.562755192044378
Si 8.394003580298028 12.603116980582339 10.99391703848412
Si 7.845709924256731 14.956640960588595 10.76877811651133
Si 13.503798293228321 8.378405183786407 10.521722503420971
Si 11.00768863505033 17.00732740874202 12.469938029070422
Si 11.689995095712534 14.788919704191422 11.549143459369718
Si 9.38990181260312 15.201820387103481 12.57599126479392
Si 9.996327826918733 8.426336283056038 12.209370790840909
Si 16.50168233688822 15.58943638950702 12.39574887248475
Si 10.47649632798366 12.454496443573548 13.016989206108093
Si 12.750334333013553 7.576868872587261 12.603476508643826
Si 16.88571945623297 13.236595283955364 12.509153107960014
Si 8.12001317772517 11.846281588907916 13.235830685975678
Si 15.107965458526273 10.73093256785059 12.99926267294804
Si 8.74920429387323 9.612698918152514 13.81927402842522
Si 10.759012010885888 6.425234307951994 13.27331740787083
Si 12.783714663841462 13.231442475899586 13.421126648453408
Si 12.392431706507429 15.730204652472429 13.91312457642525
Si 14.619059344408956 15.107728499114678 13.791750532757685
Si 9.54532039318734 14.042169835272778 14.63230655928364
Si 13.31579935231255 9.48897967426672 13.839463659964894
Si 11.114515179432168 10.479603775852388 14.36836245904831
Si 16.695155239569942 11.764821805808317 14.418883417823183
Si 7.661283501750522 12.814619740988629 15.412632120777326
Si 10.495070360973802 8.02757021768457 15.05322694261887
Si 8.314138395699528 8.677054048050323 15.955557519041342
Si 14.778477559598764 13.101471103517266 15.031127206882953
Si 11.398441497728573 14.943903239804426 15.879091870360208
Si 12.612054587346964 12.89748458437799 15.870686950998518
Si 9.13811984681283 10.973024344093082 16.016471536397425
Si 12.395481244191325 9.046419014107975 16.0098739898528
Si 11.412503544898193 11.06546367784967 16.79433799533266
