51
Energy = -243.70789507 eV
Si 10.100311053746246 8.73073247203575 8.667776532615763
Si 9.222992054256022 8.417936710103396 13.837216669154897
Si 6.233985900424979 5.433711691968365 9.866421114066277
Si 9.865166945678014 6.048542446349939 10.802976764851296
Si 5.249075855684542 9.401977004752021 12.351147481529157
Si 13.32928488892547 11.0261928350124 12.695044607274951
Si 14.577752992292512 8.956133313473876 8.547202882112327
Si 7.145444173396144 8.000020362991448 12.77145293243978
Si 9.6048758909694 9.977908253648698 11.918320907861794
Si 7.783348800798738 7.1595592942622535 10.6186176887468
Si 4.857721252487121 8.52662875269205 8.47639667096349
Si 8.16941509864551 10.1369110518952 5.215761661926278
Si 13.56622081611794 12.50953225901313 10.693116750584753
Si 6.418344325585139 5.773163853228722 12.522635001502485
Si 8.990361079826934 12.369482816723574 4.646557955205723
Si 12.758558821590508 8.229782126039613 7.126876917405653
Si 10.770781897148927 7.754268026947674 12.190279549581755
Si 11.731980668863041 10.786989456546392 10.849040992091087
Si 10.099107305017766 8.983238015380389 6.32750671495205
Si 7.979339542442757 4.5085053119417635 11.267333554120519
Si 9.152027241482907 10.738438420224805 14.272896537530054
Si 12.003913909276577 5.970281350574201 6.998016037951255
Si 10.910139774349846 7.027607284548682 5.091837687834234
Si 8.743687710156028 12.871343473136731 7.081784278055686
Si 12.946702390335957 8.711779093888323 11.944904278718159
Si 10.170633543338937 6.322600262275157 8.502040153330068
Si 10.743416856207402 13.747192444576621 8.109145730984194
Si 10.915091183327771 11.112740713612657 5.3343734651959105
Si 13.519326205453805 11.026469560533926 8.836811465430594
Si 4.344297146327229 5.4435236135985345 11.34199119660968
Si 8.602907378861929 7.159208851595895 5.297534621512023
Si 4.956872544035675 12.486013707853798 9.763830299100322
Si 7.720224572076565 10.678390818754558 7.407246927288248
Si 14.03436482072208 7.337372276067656 10.306405043136369
Si 8.204946732364649 5.930654334813971 7.261425833891303
Si 12.312585805140118 8.824124905505144 9.545610183937928
Si 9.730396878669652 13.402828452194795 12.173877930521197
Si 11.90643523130044 11.81242481700044 7.327725999861329
Si 6.418475497772609 10.666306625293535 10.66805664078887
Si 11.202145250333931 13.144342310727453 10.377977957881251
Si 6.373761638470639 7.63068238027041 6.92918201842963
Si 5.451789129146915 10.857735266138256 8.229941091804719
Si 5.996155274069923 5.291129240461365 7.438580140322112
Si 9.959067880058724 11.332163342946371 8.775820465077866
Si 11.019365252596916 11.636096879612156 13.243618094937181
Si 12.155742521617096 9.090725610659183 4.961898799081034
Si 7.355960994219469 8.969848764290997 9.005687974188097
Si 7.178079629535539 12.873542117115162 8.96208583676806
Si 4.989588631130503 7.640063510571201 10.743918828632252
Si 6.664635676782383 8.347549026817552 4.608028888451986
Si 8.51372209238031 11.83613324477407 10.716590999203005
