52
Energy = -247.28612979 eV
Si 11.175794439035554 12.82213070808114 6.534573126064967
Si 10.588357721571317 10.883332523988189 5.303308830578738
Si 9.002253635045777 14.191520170927264 6.913584451899382
Si 9.23850349122 7.4949122196186755 5.882479867558015
Si 7.234672110064091 8.686405176834452 5.516513812353706
Si 11.40154596921075 6.71790919813581 5.292816688466943
Si 11.455569934145338 8.857236211507693 6.351709782035269
Si 9.151034608806464 6.019727527709054 7.7052146831052735
Si 8.436658653554009 10.602666893882569 6.124331339453149
Si 12.83717057331844 11.600544566241075 7.812338247597202
Si 12.610613746468346 14.768192260193805 6.667713830540393
Si 7.57464271277476 12.36815029630592 7.408905241947162
Si 6.804404314571273 5.75071264148922 8.3114664644627
Si 13.775813800140314 9.353105687579134 7.9904278066285555
Si 10.031211007059982 12.888107368703256 8.789330066239346
Si 11.502963603615697 5.730733150973394 7.5040605465616865
Si 9.25065129532179 10.566335615344933 8.50183372636081
Si 9.37777602728896 15.370631567909653 9.016342105862623
Si 5.194845308987575 9.397863256103916 8.978227761289014
Si 13.894037367119019 13.674838765260548 8.355944483661721
Si 6.664910274744792 8.086705797624525 7.708783570133293
Si 9.99545477439665 8.240616208167097 8.236792173923972
Si 12.341270137612867 7.516734922269496 8.847854986207217
Si 8.243066166660297 6.803943122113009 10.075869584821861
Si 6.824459083695616 11.100680320305106 9.244220124070187
Si 12.020178979575716 10.107485957787942 9.559480500041522
Si 5.761253131725071 8.102617658196603 10.866545550933335
Si 11.700673831418863 14.775761522986594 8.8800053165075
Si 8.937550704595612 13.835762257345213 10.808904171367582
Si 14.49467459725856 10.527034838074565 10.12804990196384
Si 9.857877708474305 13.7795931636204 13.046280446567387
Si 13.473836439767792 14.576086002146987 10.539494074927724
Si 9.688858436196563 5.21270820354427 11.351743650728189
Si 8.78198129184988 10.90583310743388 10.86585126704244
Si 12.766853708471343 12.295821095133821 10.3408032466237
Si 5.891925556071287 5.697568508119164 10.628432103978264
Si 10.95718860692332 8.22961173864805 10.856404674312632
Si 11.354543259892317 6.323704413899572 12.686210840249048
Si 10.77489906895705 11.907657600537599 11.873740588459155
Si 8.01355990482676 8.81812181324896 11.535885130111652
Si 6.0188674477823865 8.610369750642908 13.132180786800955
Si 6.939370537714135 12.60312648771734 11.113709842610966
Si 13.100469260333288 6.908914184979802 11.076052101728232
Si 8.230030367814345 12.000535599139699 13.043835734793086
Si 13.348307341209054 9.18019621875752 11.66970984943802
Si 7.585664378601634 5.4597818632999955 12.352918294226088
Si 11.34497009166214 9.739439769424685 12.754196186155458
Si 7.830480033366128 9.866943789805607 13.972225678059928
Si 9.103237165469514 7.425035762795621 13.017418058781278
Si 7.03713279810839 6.727334466077328 14.274552236538636
Si 11.047947862000148 8.06150137101885 14.464409385014022
Si 8.69945200590762 8.197181950752185 15.455782352619694
