5
Energy = -19.18265705 eV
Si 9.420685325283609 12.814368903750442 9.885938210898567
Si 9.277899412486045 10.545580045552617 9.766386350679275
Si 8.680027086733102 8.743458775106108 8.44757295989271
Si 10.257084118988882 8.53987878814786 10.379621058429192
Si 9.793477273141889 6.785886704076774 8.949654636733783
