52
Energy = -248.56882174 eV
Si 8.973673038662405 10.652871648716236 3.5974177360914235
Si 10.209350781725625 7.004100198846795 4.469390826982414
Si 10.493903912503958 4.8201922341296894 5.454147737991334
Si 8.328442675354836 8.41792414928946 4.254150342222982
Si 6.238108974131727 5.131709136692905 5.203985366484106
Si 10.935810693646616 10.421388060413243 4.953689188182103
Si 4.279346469685657 8.888230209163284 5.21492227140976
Si 12.053973796201529 8.387385028960159 5.004301548954515
Si 5.795452222492512 10.583209237562341 5.9884273605864475
Si 7.674690209469542 11.947582315046622 5.270860204593317
Si 8.181214969200731 9.746400888907033 6.2652253000938725
Si 4.33024765224423 8.29746880058618 7.58621674401995
Si 9.452200487453476 6.744229310806783 6.762310174825156
Si 8.274508458228658 4.482503971249511 6.19272557458306
Si 14.389272386833568 8.67090543473762 8.413032325145895
Si 6.255199752951052 7.517526949390073 4.891515126307066
Si 11.599847010153507 5.499402483994318 7.5307574028602575
Si 11.21222083157225 11.678154852779471 6.894924275078857
Si 10.520514346523903 9.073459823631756 6.986740775763793
Si 5.923924891812087 11.680978386322701 8.007460234210924
Si 5.863747196512072 5.01463567679268 7.5986209274235605
Si 12.668396563974175 7.644280444296507 7.188846669180121
Si 8.790068807166017 11.976686015788003 7.430586413682817
Si 6.534965283050265 9.161460482177427 8.112649574955313
Si 8.441198947619911 13.150810206228154 9.563875480120602
Si 9.523474424450978 8.86410487828402 9.837150952715325
Si 4.358705516362494 10.042568686038623 9.262889084411922
Si 7.107582887426411 6.8999674343555295 7.0383112712067035
Si 11.574341148411687 6.123683624190396 11.140172508093938
Si 7.414938251923208 3.1797595208156646 7.994364544532417
Si 4.471887556034758 12.41610694174682 9.691298745239846
Si 7.536454320512641 7.834611564796688 10.631433721730396
Si 3.903581026686234 6.080158160352141 8.448199683916341
Si 10.11184077797443 6.592980030234552 9.15428441246105
Si 12.713931292855705 7.813698220941139 9.946658194795818
Si 8.692890598930255 4.6322303312219875 9.328584748602319
Si 5.263829515887931 8.669966072765243 11.000449473791369
Si 7.975249721543354 10.633419584397831 9.371345174700759
Si 12.423576597150168 10.204568727133328 8.26140984788521
Si 8.39306161279723 10.470411698234663 12.987784928440135
Si 11.63092459032628 9.813326185269387 10.401884140290731
Si 11.146232566386523 4.239283704289442 9.590800139050293
Si 6.779082623304852 8.779432778053117 12.753859480800383
Si 7.257505976442617 5.4997394923872225 11.014609387133637
Si 5.188987174630716 6.420156818402868 10.345696224396088
Si 10.003753542311728 7.665052817157863 12.142122511833524
Si 7.967916387188887 6.678864856464025 12.936493652982508
Si 6.642351815033962 12.031103307771103 10.816304568863416
Si 9.463888624727128 12.579560501429443 11.604292250321722
Si 10.902528767044448 10.92870766149899 12.272113965059173
Si 7.550197739216811 12.677199977783205 12.989393989182478
Si 10.293678804770964 9.348514696978919 13.913987035315875
