5
Energy = -20.34759229 eV
Si 9.566681129345719 7.4139096682515815 8.179907051566081
Si 9.768925924584822 9.670062173685004 8.873320957714494
Si 7.857037066039535 9.257654145152527 7.772809881496777
Si 6.464016130096955 7.632843951218959 7.1031345804912664
Si 7.4641033167055975 7.148306961074108 9.193741538863856
