5
Energy = -16.82619655 eV
Si 11.130747162319627 11.035421394061853 11.66299894913485
Si 9.577710496993273 10.07600280566154 10.515927760940615
Si 7.957009689213025 9.126036082980523 9.445591966572097
Si 12.686363245289254 11.907485536798081 12.874009815654507
Si 14.20714219257686 12.787869971998587 14.137732717355487
