52
Energy = -246.77633476 eV
Si 7.476305965997488 9.420538902249627 14.95402690066726
Si 11.882937554017138 8.893570594906999 14.088756668011689
Si 8.429532095255283 11.650608560702334 14.98144435605394
Si 5.16552174320942 9.853945937869133 14.304443855373956
Si 12.057448260579553 6.590001820101756 13.553315832490547
Si 8.378395443940505 7.685081582068212 13.581901914026329
Si 6.573424318165147 11.5648117383934 13.501349951020568
Si 7.0017483692416365 7.6909749875539255 11.671784177526598
Si 10.102947457227025 12.145815675379913 13.327905090346155
Si 13.289371537259981 10.173355039047948 12.632770516797583
Si 8.918123458416096 10.084436969179912 12.959076191277541
Si 4.672011954315695 10.99379719308406 10.616498295027625
Si 5.1258447967564535 9.06877125563866 11.98025624145388
Si 9.853569486114354 5.917172953585944 12.839359804689902
Si 8.751101366900269 13.519483732424154 11.905340835934442
Si 10.501114209895398 8.160628958938819 12.234232340559636
Si 13.393978503548272 7.475910184249401 11.839116376431784
Si 10.148560512818968 6.576031505761916 8.850766797445612
Si 7.1326101544397185 10.324888204139604 11.360574022568168
Si 10.412423926452679 9.113191759828636 9.939466874869725
Si 6.4432526943803845 12.82315517613893 11.388979613537169
Si 8.281179379410442 7.768755961540744 9.707437147998686
Si 12.48500169317161 12.433584895561108 13.170202284140444
Si 11.807045086718261 11.019124094744415 10.956937590949261
Si 5.57158041443186 10.596602385940104 8.414981731062538
Si 12.13686649640378 7.430167535177969 9.861484266215978
Si 14.764286537232184 9.86308240758647 10.86985444066664
Si 15.603871327754323 7.627821549573214 11.044725660646803
Si 13.683337492016818 8.3099660377985 8.176463998070169
Si 7.22982115269925 8.863895945247108 7.842423119695622
Si 10.46917446691022 6.367647457586008 6.431813143620828
Si 9.835991298594287 12.107360453912134 10.343767606093055
Si 9.379487689038875 8.377775937532403 6.815022261285834
Si 8.22042784724577 10.570077432788782 9.28217394894823
Si 14.370399566659316 6.377538948080753 9.334291345228776
Si 15.592973029573677 11.774158700369547 9.644685965528147
Si 5.697150045122719 12.307620975652778 6.757996404938379
Si 12.327417372427174 13.662764559429505 11.14772264391889
Si 10.828385010841808 10.225460780408447 7.551920436097784
Si 13.174197290038917 11.839701216253927 9.273849104933076
Si 6.91170575175139 12.621711826070214 8.870171024262923
Si 14.63339465751273 10.439957862767981 7.856417655816845
Si 10.277232983362406 14.669731462365261 10.42778636476126
Si 14.226342296300958 14.006138511951983 9.646679386228266
Si 12.000978427655408 8.227510650312317 6.498406841720455
Si 7.109573728176256 10.534583209488416 5.9740971840280785
Si 10.493206220228826 13.329337969405357 8.415577409995576
Si 8.853596205151192 11.936766849274552 7.301815990976841
Si 12.826070083722751 11.513340939830105 6.805295019345288
Si 9.491500511187418 10.384966705108017 5.437862726402654
Si 12.70825836314545 13.737614375288997 7.636017632325936
Si 11.876681130549445 10.15834643854283 5.055878884851708
