51
Energy = -242.35085074 eV
Si 9.444532827377104 9.164795296592924 3.77401900885048
Si 10.975753809293726 7.734024509420656 4.875301139938411
Si 10.241989456967186 10.656885336067656 5.534887115292875
Si 5.043275656190934 5.957926731908106 5.432500690096418
Si 13.185116547054431 8.029054949207922 5.780971081578983
Si 4.846530404902128 11.109387552095168 5.131388823022777
Si 5.298761332951649 12.668140101575709 6.874593296990474
Si 9.14166271586 4.505345203883852 6.13217254034772
Si 8.548438710079479 7.996615565775901 5.7097615458540725
Si 7.135024646189468 11.453620750775775 5.6519848025531205
Si 11.263604045158127 5.357776983117667 5.397508581969854
Si 9.740033327687906 12.953411295998915 6.083421935177533
Si 12.37100892535356 6.369628028305289 7.2949818981498336
Si 7.320764676478186 5.952536728264349 5.835020338522333
Si 7.790332832353615 9.659096202187303 7.141260376526873
Si 12.421887016050874 11.418407825462898 6.45158853289861
Si 13.806741178108707 9.692196205099807 7.340609239141721
Si 9.990214642472665 6.680330079953742 7.181014827011674
Si 5.177025169313994 7.364500528188332 7.382040803528389
Si 5.377929610297726 9.728384147572436 7.002783371943859
Si 9.328898776009156 11.370863124379119 7.936677502223152
Si 4.779520106485437 4.571359849281628 7.338320318418691
Si 11.391596041220282 9.043784023550133 7.243108451243786
Si 7.486434552916864 13.68742603318921 6.871232271173988
Si 7.821128489185411 4.446727285809883 8.040928805801686
Si 11.719846895382812 13.426682393430301 7.520856363797476
Si 5.969236437550572 3.119920739214616 8.72987648002606
Si 7.432660594459702 12.399589304967844 8.893114269735126
Si 5.550185904277846 5.197978529527682 9.924632544656895
Si 8.08630104820218 9.246542506658113 9.495552751161476
Si 5.16305225096715 8.1493964889939 10.813208406800454
Si 3.4571390476217023 6.135439225327913 8.505271088918
Si 13.060768972778673 6.2344897911574595 9.580353066031249
Si 5.263172268570325 11.156849431797234 8.885128726179369
Si 3.600153209808475 6.286192179976666 10.931670504460529
Si 8.473351657669156 5.672842117584353 9.956977577364475
Si 10.28240063318865 8.860975907748893 10.241190215437303
Si 12.663284509126724 8.60415935916947 9.284269489536488
Si 11.472846808926278 11.495014229295302 8.860737728680201
Si 7.062905752469719 10.98368660297764 10.794389493966607
Si 10.732675459625215 6.462804218989562 10.114352381700408
Si 12.21768240379594 10.340086305958454 10.8669305369239
Si 4.705241785013731 10.539947176810191 11.092103051346646
Si 7.346574750006733 4.276810122056873 11.726960374020836
Si 6.74577132995482 7.2198774729892365 9.219912687531991
Si 5.48144638190042 5.707620504752122 12.457387577569481
Si 10.508082324020767 9.635478216420134 12.747024494811157
Si 10.275098760013337 7.277861226873048 12.310668519335998
Si 6.265673638585541 8.03665657100619 12.988543271017955
Si 8.237189628994612 9.158502110568714 12.063415209321215
Si 8.012975590648205 6.516296467603332 12.271319430931289
