54
Energy = -253.85134219 eV
Si 16.06146616879418 15.266922863232685 11.82039683475949
Si 7.515187450807623 15.271784456154142 11.782085479856022
Si 15.887876756086927 14.504004216982297 9.449515222818961
Si 8.395222623862269 14.40356125647519 9.43649282298114
Si 15.818837682031234 12.275896869650667 10.36359233181363
Si 7.062769798939012 12.871993597376811 10.851818524848602
Si 16.507173167175516 12.875555854060613 12.761570787730404
Si 7.752666401523997 12.267997136255369 13.226373917622443
Si 15.145831155676232 14.387559800940227 14.148017984987096
Si 7.729343946997498 14.489086243844168 14.16514328722191
Si 13.943414972159925 15.548502435404654 10.808105356824683
Si 13.70844117574196 13.221840316839282 9.073244742569715
Si 9.863449500682243 12.577741288851163 8.45409347971941
Si 14.507005852655743 10.358324635906987 9.869514891202245
Si 8.456425259535486 11.039851933836738 9.879799403844288
Si 15.717563302536735 9.328885633849143 11.926049869708232
Si 7.8850812687851475 9.324670813898084 11.664660707141625
Si 15.133087094181942 10.999742916256803 13.717652293272591
Si 9.11053174794909 10.382040205033736 13.70050477321142
Si 13.703117538765014 12.536431478233327 15.11990972544417
Si 9.884705745542538 13.19788407915754 14.47394505382808
Si 13.981262222952202 15.56652725894217 8.382735193270271
Si 10.595523684082606 15.436981655084674 9.635371233544584
Si 12.96282973914001 15.468572238438872 13.937671567442754
Si 9.661680244063582 15.566716012800796 15.178815025591152
Si 11.79268145871029 15.144682001857145 11.779578615282833
Si 9.644165433758745 15.560514654123134 12.75482176212147
Si 13.212155728735034 11.306941258214396 7.760276081956097
Si 10.81636454328682 10.709590238090511 7.073748341016966
Si 14.12301237523075 9.078661163424226 7.688703560599576
Si 9.429552125602466 9.190710193470526 8.428428865948485
Si 15.199577506509783 8.017342731865412 9.588289572378388
Si 9.644887799651936 8.120720471917727 10.615547205878796
Si 13.9485926006928 8.152863249982737 12.987356198871693
Si 8.404762247901552 8.015393781726962 13.92917706496947
Si 14.150410246909292 9.173800670528715 15.191917692600885
Si 9.425815314555953 9.089860178590206 15.856837274793584
Si 12.734768868658094 10.71047434701717 16.51931390716931
Si 10.361341762929458 11.311612194598966 15.830875035232888
Si 11.651433919644617 14.256543870487741 7.864554537496757
Si 11.921658788561999 14.259440102421106 15.698182522660032
Si 11.754427800185477 8.312857575439976 7.523108844783395
Si 12.772898560983558 8.02993954816173 9.636389954746578
Si 11.802997910074533 8.44152020594749 11.78772454583187
Si 10.828513911349367 8.017897586463093 13.935290454390103
Si 11.808326595587353 8.30645609505233 16.062288264627355
Si 9.418459293157676 13.251524471815227 11.617830391924434
Si 11.621302501989296 10.337400010090024 9.415247187340348
Si 11.969233058207024 10.32464697329086 14.163899221314518
Si 14.164583973671899 13.2386844038872 11.956080310806849
Si 13.409923107439294 10.501730682672092 12.080630005159763
Si 11.49890541931746 13.087679643317804 10.171788612535261
Si 12.100957857887584 13.108231552042065 13.398783159946156
Si 10.18444954325172 10.481559038199412 11.483366532470647
