55
Energy = -262.51325819 eV
Si 10.737664113973175 11.328296437684923 8.104372952799135
Si 14.998027894605064 10.810192272252744 8.44309658995309
Si 12.281894510946758 13.399354042876237 8.352788169292399
Si 16.435425076567878 14.854341870943857 9.274265490080747
Si 14.660449061937463 13.16778131386416 8.916209611351022
Si 11.229265531294729 9.394882647422582 9.465999641424217
Si 9.680308316425718 11.303192241652503 10.262013973077291
Si 12.144289494867252 11.717028994614603 10.172658512213824
Si 13.529329662852257 9.837636785393842 10.084156686165572
Si 12.941734493876687 19.105711043139127 9.787758026282283
Si 16.614344708065133 11.042288635800867 10.160662504477747
Si 11.118789538707375 15.02986589577539 9.734202029678016
Si 17.294186792717856 13.186552258130435 10.754208330136857
Si 9.589980517544967 9.133495088093838 11.567408356965588
Si 11.547056936967753 17.300281011511657 10.401941389815395
Si 10.683723860946387 12.37575666645777 12.217011132382689
Si 10.032982230722263 14.576992778976614 11.863119111838817
Si 15.120082140272993 15.572262082806732 11.166063708596038
Si 13.229359127881358 14.23199651716868 10.6160672640402
Si 13.803433690720778 17.49234143785888 11.344299440576542
Si 14.130353018907126 19.830299433278615 11.809094708055067
Si 14.21876749792296 8.942511499195069 12.174572737053209
Si 15.522723038459047 12.041998954152714 12.106592790425212
Si 16.490539588200246 9.699655787750089 12.071649756999763
Si 17.30874407725069 13.459561315791222 13.149021902697958
Si 13.194193480718209 12.684998868282026 12.41260696701492
Si 9.012518524298608 10.949707553917502 13.199583920039224
Si 8.248485782277655 13.324205456724023 12.942047693491782
Si 12.957686809739574 10.536286899485553 13.45251299851249
Si 13.35338323777144 18.38788076567692 13.551165400432996
Si 11.349503491118764 16.428231176262255 12.599544181544887
Si 11.33050333459702 8.622173499681281 13.189209629926964
Si 13.188524327553068 7.007473030011063 13.103628257209502
Si 16.76414780757222 11.00251236219849 14.000793203923285
Si 11.005978491451422 11.32887730584237 14.73170470952648
Si 12.973105996113045 14.873824147480141 13.508936677991262
Si 11.090518373795462 17.998297318871494 14.335574547123098
Si 15.475665035720384 14.941160367216435 13.494512145659924
Si 17.963416042507568 12.631447277161573 15.309772224885545
Si 14.520217556483665 16.71566252190522 14.718708967834838
Si 14.664047813106123 11.06407345900428 15.065914915606033
Si 9.349731018451164 13.380995454478468 15.107960841642349
Si 15.565489559055946 13.237187316533989 15.495557829492808
Si 8.599527530956438 11.195727760387207 15.586983499297721
Si 11.911086999180979 13.592676637428388 15.254108595629768
Si 12.831191700595783 8.110547615322895 15.218893129631704
Si 10.522096113798742 7.799728185351495 15.330832483844915
Si 10.250094008011843 9.788207025408232 16.541060913347852
Si 11.919622223302012 16.287558633247098 15.771934572237141
Si 14.108448808126738 14.31915457073005 16.93635061405336
Si 10.391214758418563 14.73761085020402 16.835698208702077
Si 12.162778656334277 10.93658876596063 17.044855290784866
Si 14.040298644606057 9.549560183232146 16.738382156143437
Si 13.906879904767491 16.625657528861137 17.01368716431867
Si 12.133915136797395 13.235436540400933 17.6359695336317
