52
Energy = -248.6176761 eV
Si 11.049975485945845 8.96176883002563 10.585095334761526
Si 11.608053000604482 12.02103390788241 16.954307687223917
Si 11.124448760037748 10.718725069420435 14.551889134358897
Si 15.160161401481721 10.87208027639878 10.251045109642616
Si 10.753009356399378 8.421333478922733 15.579970685877985
Si 14.870125223891685 9.013599105548343 8.816476155181958
Si 13.673218053786249 12.805324804730168 16.072075884800125
Si 11.899261882360827 11.752519321367735 8.993088983011736
Si 13.484772813348066 10.772187619530236 5.374424101294721
Si 15.888528217710682 11.856471241166986 13.252769534472662
Si 14.815246143281012 13.230950963100815 10.670000323870193
Si 13.489924881918261 12.587425850530078 7.221874516424638
Si 10.199840043226269 12.917154464906282 15.032950909807012
Si 14.536664587147602 14.941442422491637 13.255170230876972
Si 7.412690386587583 11.938618876282085 13.267238524228828
Si 10.13345102540636 7.1108384867904855 11.808531734713615
Si 13.734276223646212 11.187677403240128 14.107253127198653
Si 13.495887306674987 8.98395028574195 10.73568971352549
Si 8.087899195739338 11.127286291898324 9.725928738278888
Si 12.148491041622957 10.320673495761223 12.415957321943859
Si 14.609918101209635 9.226457912632375 15.50845144161442
Si 12.436042398431084 9.860318179829232 16.370571726578383
Si 6.983343464454375 10.218039313708264 11.657313421264295
Si 11.265908648020734 13.670686653563788 7.688400588922931
Si 13.152950458775852 14.796359426860525 9.711824874750189
Si 10.79604345320819 9.638097057816593 8.295510078445009
Si 9.634287109552654 12.912400657242816 12.610537729652439
Si 9.516413151810594 10.709557121582089 11.630559116176206
Si 15.633002269134543 11.443082105379727 15.65742466259866
Si 13.711471952675833 15.088569429164385 15.507453398427465
Si 11.26842322743871 9.790935689805375 5.824030893004187
Si 13.143013517613186 10.079156706078763 7.59913857458502
Si 8.529923075315029 13.394222551573776 10.213136333923622
Si 11.08423810819016 15.973864709948765 12.955162233282012
Si 8.447863732800007 9.936840138713835 7.6593107515942895
Si 11.066806843166773 14.281023445326758 11.139430181160291
Si 8.618906321309964 8.776355440852818 12.717552672238268
Si 12.648246305952798 13.559493171772177 13.810116447683283
Si 13.13148780203459 16.047047973368578 11.768856031618151
Si 16.454870308172378 13.937334746883876 12.271009734987578
Si 9.689709026500065 15.275859012278554 9.393106787816425
Si 9.956494531645623 11.693643962803613 7.176876645565839
Si 11.299037514589427 15.12549209259967 15.161834586205346
Si 8.902180587514813 9.722953634773026 14.83143910511909
Si 11.670868387831288 8.003588149558302 13.412482193357384
Si 7.976276196439453 11.778125545497131 15.5436622281108
Si 16.16036100773694 9.80112700537625 12.148903597561805
Si 13.991386339659089 8.749829959191954 13.105178331885323
Si 7.542247866539079 14.09338060716321 12.211215773737905
Si 11.563311860505996 12.353667192003098 5.439787983479326
Si 9.09728854682088 15.97505551183325 11.69599199655194
Si 12.680827019008388 12.296094915814768 11.228777090646885
