6
Energy = -26.45903594 eV
Si 8.373649140351224 10.110369732825543 10.086903346806636
Si 9.250551877018735 7.692004198392163 7.158449915247304
Si 8.38705411261629 7.295131302173816 10.12127373443136
Si 9.089991241892369 10.280806686296318 7.695255912965579
Si 7.480642943309525 8.636317774718224 8.414063008109872
Si 10.057169981417385 8.64948293744901 9.173416817974028
