6
Energy = -26.45041864 eV
Si 9.23081825223372 9.887679692115917 10.662418348794322
Si 10.180581083646086 11.264816237522837 8.995612641436258
Si 7.390656586421684 9.633963552217912 9.204397288734722
Si 9.072195997621634 7.620948792468446 9.849410228202029
Si 11.183967199599609 8.854648965916406 9.692824492016284
Si 9.426705125381014 9.222866759758606 8.080260755913047
