6
Energy = -20.95688853 eV
Si 10.729226631746002 10.456920156289112 9.96641095671555
Si 9.32108559238136 12.334316034647301 10.125018829876161
Si 9.178329710151507 10.48159929584804 11.62077093657457
Si 9.775723382442902 5.755694634511208 7.77738175676645
Si 8.739928288482693 9.567765609147171 9.13613336562723
Si 8.624193908138377 7.73012961227329 7.655454513353441
