6
Energy = -24.06177896 eV
Si 6.29006375540494 6.710235309208823 7.826480069194954
Si 6.688987919966359 8.842149499645279 6.768125220045923
Si 8.028666274783644 6.926045903343076 6.167556224875813
Si 9.547335209330393 7.469239828928714 7.842130640742929
Si 7.807859296389319 7.256494778405352 9.501966446252267
Si 8.210638939982505 9.387209830011285 8.440487124023784
