6
Energy = -26.45924907 eV
Si 9.026643663297499 9.208853594491503 7.559007314534073
Si 7.784233550997474 7.415350796742242 6.667971302809839
Si 7.781195999702864 7.3233918124263635 9.02323877365155
Si 10.118691086069939 7.467182629689305 8.725920714645168
Si 6.751438326360481 9.37679436023448 8.310227025991722
Si 8.654536810511472 9.375248694775342 9.930136491916684
