6
Energy = -26.45849398 eV
Si 10.67912676058593 8.752519821028292 9.347445540779432
Si 8.669522589225597 6.85388340132747 9.365691810734267
Si 9.070239199494047 8.370461212287333 7.607843531328428
Si 9.263764037416207 10.611960671203974 8.480439812782635
Si 6.964903496222893 9.238164188355258 8.249150528234614
Si 8.414214196241273 9.070037775650869 10.11406305430326
