6
Energy = -24.93358087 eV
Si 10.74167537213927 6.500000000000065 8.471727135337026
Si 10.693728123587157 8.806736285187467 8.910685431295546
Si 8.55002471160205 9.822140426366749 8.498430623733725
Si 6.512220088105092 10.753895460244296 8.471727135337026
Si 6.560167336657205 8.447159175056894 8.910685431295546
Si 8.703870748642311 7.4317550338776135 8.498430623733725
