6
Energy = -25.79371166 eV
Si 11.291308074523768 8.178960576243618 8.822729175292713
Si 6.646042438740572 8.047819517821909 8.823150964518
Si 8.03898688253656 9.476387306023435 7.479721302629896
Si 9.858423860814261 10.09452518626926 8.822024919121338
Si 8.039936757579518 9.47634602719619 10.165839267494402
Si 9.061098893154725 7.661758293794742 8.822331278292802
