6
Energy = -26.4598707 eV
Si 9.666315304088236 7.999881391033378 9.631327756127227
Si 7.646592224309066 8.435768068383618 8.400361065201848
Si 8.972687426080377 10.428566843497107 8.688652372599401
Si 8.032464730758301 9.43650918996446 10.665797321742426
Si 10.225400441933704 8.832361479185678 7.498064926147148
Si 10.62899924014735 10.040107145548967 10.328376271879367
