7
Energy = -28.65012367 eV
Si 5.804849048999111 9.631948597224907 9.595124408749925
Si 7.808454472172862 9.71288650379438 8.533256133460082
Si 7.563090033096426 8.654324429970805 10.803084284251979
Si 9.668347612682151 8.60881624864642 9.490674827199662
Si 11.194023687589155 7.587683156795822 8.03773973895337
Si 10.1740767621093 10.267693185429644 7.973029350033183
Si 11.806030208759001 9.495669746104726 9.521460698172987
