7
Energy = -29.94663861 eV
Si 8.138493026586145 10.096808627412193 9.190314320094982
Si 8.72837896007105 7.6870796124214875 9.626796497251357
Si 10.06198056682544 9.296621645815788 7.9986748521471975
Si 11.562372890974084 10.596948934291754 9.451435653243323
Si 10.053915275398666 9.298775740773538 10.674505059160964
Si 6.571640350448361 8.3685519872123 9.167062391684206
Si 8.224266784160722 8.005721819726151 7.256007665563165
