7
Energy = -29.84314431 eV
Si 10.644746434840773 9.831701065985456 8.113478038783041
Si 10.38284136359074 9.197908178326122 10.438553878580086
Si 9.183732096238277 11.37368492093776 9.179652074824531
Si 9.306933149162411 7.8748217360777355 8.506478219096559
Si 9.070675354100297 7.133387751677152 10.702061795223926
Si 8.021504802528408 9.766626179291647 7.567461808606455
Si 7.953919347627172 9.322336396159706 9.971963276905528
