7
Energy = -28.12553029 eV
Si 10.04241654230702 10.86121705004043 10.805543893925488
Si 11.399400206933398 10.12071127172333 8.680797124480089
Si 9.510067994832928 12.582272372225923 9.302746472625428
Si 9.754561453985657 6.431558749397001 9.779707174743644
Si 8.859480158143013 10.621497960772745 8.205072240490223
Si 9.524277443113714 8.799948956805181 9.641563154877499
Si 7.863078643332733 7.478909948653959 10.572503532916606
