7
Energy = -27.02100695 eV
Si 8.472313666810939 11.653808802202496 9.874383517511168
Si 9.81632983731713 11.195617807744798 7.843534286998728
Si 7.6007954468426755 10.142672196014097 8.124630825036506
Si 9.370122855812236 7.095556199679572 9.787053741428705
Si 10.133681790515485 8.547723665678362 11.63097385779003
Si 11.540592908836265 8.269565668001508 9.616240425524994
Si 9.462153504058483 9.491046160679161 9.519173845709869
