7
Energy = -30.35041533 eV
Si 7.666311174028471 7.2638551130806315 7.330130664339884
Si 6.800549688695586 9.213440177663434 8.504388652864565
Si 10.820563179778539 8.665598820823616 9.307104254483054
Si 8.63309805341133 10.020110531389623 9.664113265274926
Si 8.696586323064954 7.552382156051178 9.469825850678264
Si 9.290029078910017 9.01405172178804 7.4901145877453965
Si 10.562705185411893 10.724770991766656 10.675085593141938
