8
Energy = -33.33922636 eV
Si 10.239464077483106 8.436644979146866 8.093825294886576
Si 9.486248002001812 10.472821589510485 7.363772525629059
Si 8.946012494291756 7.49673154222982 9.953616893455028
Si 9.480035314780139 7.921432822060786 5.999653485105833
Si 7.709554232075763 9.18903180497441 6.698717981286574
Si 7.167124909463701 6.202608043124089 9.323124033634128
Si 7.1750835713217525 8.786715247718714 10.623502449014422
Si 6.414022839676717 8.215446039838316 8.539978248301404
