8
Energy = -35.20680167 eV
Si 8.087787936497948 10.08004562250486 8.891112875076407
Si 10.09774747967402 11.58805562865321 8.046609254607151
Si 9.248049256756651 8.61245611081556 10.616349307334291
Si 6.907252434263707 8.313753490502897 9.986267248115988
Si 10.739554052571703 7.128938532392676 9.011484788869113
Si 9.66841041449571 11.138888509027328 10.375937255870646
Si 10.442316813878847 9.362977347517612 8.393708106400105
Si 8.523780355144547 7.595281718862993 8.411618764159394
