8
Energy = -35.20530923 eV
Si 11.709873953118851 9.935836270556049 10.478967025995217
Si 9.804398100818183 8.369661057119714 11.187052374668955
Si 10.567965945720479 8.52338570678931 8.720792734960332
Si 11.029049104272069 11.002771849064768 8.38266629890773
Si 8.72671358234102 10.061087021329076 7.777185214276394
Si 9.412646375768839 10.57776610560022 10.109934921807708
Si 8.06030391217546 8.106060936480782 9.32750196173177
Si 7.201649438011181 9.976429427451809 10.48027792758921
