8
Energy = -31.50781693 eV
Si 7.582065297759251 11.58174580287252 8.681476750556547
Si 8.550385273320991 12.330324163402578 6.821118945381796
Si 11.019404516276744 8.616054709339627 9.219475604797951
Si 12.3115587287776 7.154902055133708 10.149143306545872
Si 10.158037326915316 6.715222476835799 10.991611739320108
Si 8.75495453070979 8.311489357890883 9.74393769720113
Si 9.566728775569812 10.866836786096727 9.518375162416387
Si 7.913236428204753 10.228012156277892 10.766676633518573
