8
Energy = -35.30187702 eV
Si 7.481329595589749 7.859041360190676 6.8775442920233605
Si 9.939596997145346 7.752022444676226 6.809450524318195
Si 5.223654653344898 8.102455777309423 7.370712482508791
Si 8.890601326790177 9.65738129204017 8.041082254052915
Si 8.80240123906844 7.063368521109843 8.926313388402907
Si 6.765661908586577 8.617665305049261 9.030550893276873
Si 10.755898622287678 8.49556442696854 9.071609090008552
Si 8.725794033505846 9.037439248974424 10.457675451726834
