8
Energy = -34.59791857 eV
Si 8.070881984188118 7.607208854130273 10.538708441646962
Si 9.683162885288532 7.980480051226938 8.635567104006759
Si 11.811950890376053 8.54574935143362 7.857278657560145
Si 7.264049605757108 7.385994789880684 8.222806197419095
Si 10.337357321975347 10.447347253205129 8.179741716172753
Si 6.532224123708938 9.425188707453588 9.587456575407698
Si 8.912506443302751 9.867653351717912 10.042897038171752
Si 8.1092145831202 9.641878823938773 7.703788358134042
