8
Energy = -35.73831156 eV
Si 12.389998757021964 9.810580818604457 10.510668005336571
Si 10.40634920763425 11.265538513478685 10.733821249616321
Si 10.440336375914015 8.404261132842999 11.005841384925272
Si 10.794314137914938 9.640016238720495 8.86571971062007
Si 8.54137041212113 9.783402508197751 10.410504252827826
Si 8.813737020977545 10.783498909614806 8.12638058780266
Si 6.9557899871102755 9.327896499456513 8.81441243728832
Si 9.024554096137505 8.003652709189215 8.731144874577696
