9
Energy = -41.06559972 eV
Si 7.671205236537916 7.024650159076328 6.616040970233668
Si 9.993056044819316 7.5480934173480225 6.386022569242002
Si 6.366971664893897 9.166123123304532 6.771967925534704
Si 8.819053383243547 9.383213176415369 7.3469286609795645
Si 5.51551504318814 7.058500836597484 7.690409391835211
Si 7.335123945998769 5.8990569256171295 8.843524800550934
Si 6.96798351255494 8.37664274116237 9.082132558288526
Si 9.037537370703495 9.397509331271488 9.720687914881495
Si 9.436919250928641 7.289575742076074 8.68565066132242
