9
Energy = -40.19345699 eV
Si 8.947027790598142 7.933861847482725 10.338255966033156
Si 7.934236517582492 8.066189220077199 8.125899090252462
Si 9.140068150633489 9.930581209139087 8.561526142326938
Si 10.500627095861157 7.722979249963935 8.382667122400285
Si 11.717411066200743 11.048351077691716 11.298181520140169
Si 9.263573686254938 10.223649571053512 11.133523647576054
Si 11.135138610315506 9.383976304496965 9.830073039009047
Si 10.372669876720444 11.894768598048312 9.3495570697935
Si 9.536609820685976 12.428225827633208 11.574847647643331
