9
Energy = -41.06657437 eV
Si 8.81764581717091 6.51624718816568 10.070334664228604
Si 11.308033720665371 8.897703184080212 8.19309557603194
Si 9.525646642057694 7.336406164822373 7.945302223338989
Si 9.955705100592638 8.607833176683116 10.131139348898277
Si 7.391162952565727 8.285733727620428 9.315650510585444
Si 9.216650924623188 10.045103739985711 7.918893850511604
Si 6.8438805825407085 10.35382633139715 8.235187960726588
Si 8.275422716936939 10.487418603916499 10.202560371120091
Si 7.591318227191366 8.506606195488244 6.807189786223453
