9
Energy = -39.81894068 eV
Si 7.446080841093995 9.964183441567693 11.584791326273383
Si 10.634909304522195 8.126869695922146 8.91293937629631
Si 8.988940667220445 7.639891713068387 6.9778625950551785
Si 8.340525146132016 7.0449965190980635 9.281255885884793
Si 11.111051439823987 8.497956872445187 6.5999745514682795
Si 6.490124284583337 8.405256661014329 9.978636262259123
Si 9.56560198324817 10.101826108851064 7.484858669335856
Si 8.755492252938936 9.522666057635044 9.790823219640735
Si 7.204425064504649 9.128094522161536 7.7992955133249255
