9
Energy = -40.49318158 eV
Si 9.77611381889938 11.173428889460874 10.593702464178794
Si 11.319144684561783 9.882606897034643 8.88286141212209
Si 8.663272646858756 9.623336664636515 12.204853846630439
Si 9.596850410367312 8.677925397871917 10.325410462235569
Si 8.208416252978244 7.938582557719051 8.321446549864579
Si 7.263284972402356 9.595448835577281 10.133586496079698
Si 10.6598341105772 7.540379468632528 8.393170723738093
Si 9.838693400759984 9.28134655021174 6.789118016689457
Si 8.83003661429762 10.408997029607944 8.588539593864393
