9
Energy = -41.06527802 eV
Si 7.482722986982684 7.011165963546842 7.827394436282487
Si 9.820710431032703 9.74064594263199 9.958296596070209
Si 9.639727373302456 7.241462291092213 8.803656439808753
Si 9.552191267261941 11.202848952441823 8.040965135912556
Si 10.869237599323416 9.174491397222402 7.757727219925617
Si 8.331737741136983 9.219696221724508 7.501528263956647
Si 7.529018031564121 8.226020996973487 9.878163363663305
Si 7.584392387196941 10.706405899747237 9.418775602089507
Si 9.470509940190077 7.675618329125371 11.138386482045565
