9
Energy = -40.43546647 eV
Si 10.05421056854855 8.393911091942716 10.345327328951793
Si 6.815066038894193 9.872350847726546 7.19167270687085
Si 10.283525474915464 7.9593387732944185 7.983094990405604
Si 9.366331844978372 9.68792892561736 6.6401429906031355
Si 8.610488858005684 9.631621141471234 8.98063943600024
Si 8.435193474878172 6.9277401887537025 9.400971106030479
Si 7.840535021099986 7.663277754043052 6.851977068587193
Si 6.30115139785635 8.232368598455487 8.827190764145225
Si 6.719205073777607 5.992689692285394 8.04235444490084
