9
Energy = -38.97938649 eV
Si 8.619378745234389 13.25475646606849 10.660256338781267
Si 10.370106360157514 13.65189341593016 12.25473286097311
Si 11.76835479026512 12.829342567426009 10.61345936743561
Si 9.823583117765502 11.403421848331103 11.176212331506148
Si 11.538450309627567 10.662808725611653 9.611023815649096
Si 10.583607344105001 7.157291752780307 10.493596118729931
Si 10.695202950943868 9.29212558944216 11.669852226932553
Si 12.557086071941614 8.674832714628888 10.275050299270045
Si 9.969467619304659 8.96680586087393 9.215048313106626
