9
Energy = -40.49277202 eV
Si 12.39218013110744 9.445257575482163 9.158383122162787
Si 10.366053872413657 9.500509669571759 10.248348108182459
Si 8.633266851472056 7.643438521688109 10.063154833430211
Si 10.61370369032811 10.901226643944232 8.17449970574469
Si 8.270568706260095 9.580826054014587 11.576120210283264
Si 10.605096781264885 7.899299110917088 8.3262679448527
Si 8.654143074467399 11.347834314713822 9.870283449903361
Si 8.809310463697884 9.404394572411507 8.20735119597517
Si 6.850987785337965 9.479808720778067 9.510281726732842
