34
Energy = -71.87774483 eV
Ag 14.202293778901646 16.00111243312984 11.862997259262258
Ag 12.900979656770428 16.141893111779112 14.37378548253712
Ag 15.112375862877238 13.556343711494483 10.841324825552396
Ag 11.348672985262457 15.833676739389153 12.132217377582823
Ag 12.662328373913057 14.656458026985161 9.906889893214323
Ag 13.092384564522447 13.90920427189889 15.967012669022685
Ag 13.449025395092608 13.64839982291565 13.142496027677197
Ag 15.929869344828592 11.025803297372448 9.826301445575087
Ag 10.724686096705877 14.086042069417253 14.284983162293148
Ag 15.122812576774095 11.240653711118412 12.463885058511039
Ag 9.612969252711176 14.974851160319451 10.11066513066897
Ag 13.948475134760459 11.427891482509283 14.951025704771522
Ag 10.850057066199517 12.993581307317626 8.527012419681538
Ag 8.354878485402464 13.582481798696428 12.594863097801134
Ag 13.560862750900139 12.195769713476603 8.895941587596951
Ag 10.906748846035429 13.107461491110886 11.60149405612166
Ag 11.321401815298488 11.819467876724147 15.878152469212726
Ag 14.225122950513875 9.552419531131768 8.001833235045273
Ag 8.518333006519564 12.343384255437336 10.049445977849913
Ag 13.784759509968154 9.446121238313347 10.70106066597069
Ag 12.304631726732726 11.082198169023004 12.750803817122753
Ag 7.525799478923279 10.714404307742255 12.080199464361518
Ag 9.591129334443618 11.40439515584297 13.751789646243449
Ag 11.244050671561531 10.782401013185975 10.160951888444215
Ag 6.829363774897006 10.178841117464017 9.42192402339215
Ag 11.862810835915205 10.711296871383075 7.2138313846653634
Ag 9.287743331229057 10.432201711681888 8.096426169141626
Ag 11.607254436547356 8.419527442874466 8.904907793424533
Ag 11.216247787966282 9.316187990324012 14.73327004455341
Ag 13.758290742847489 8.801623145164694 13.458866091335338
Ag 9.042357227817455 8.87782835709657 10.416767972395482
Ag 11.423188488094752 8.404441708379508 11.799381232737757
Ag 9.009314496831887 8.599863269174353 13.201908729894448
Ag 11.680484330290204 6.765319640751459 13.92854469821711
