12
Energy = -6.73841085 eV
Rb 11.015879867969979 14.500604422795355 10.209617753844507
Rb 16.42736265519193 13.850934030753836 11.228621873480254
Rb 13.658305678892438 16.872413319602448 13.121870986646215
Rb 9.209490391199921 18.326123038885413 12.605274745172663
Rb 13.204109845948096 11.264544636440881 13.243742491220996
Rb 17.31046756390926 9.10217331802738 11.283947570664784
Rb 10.01305623887231 14.204802454188762 14.757359759782302
Rb 17.764563384060658 11.094271315099277 15.22887281360166
Rb 17.530422616957896 15.99063531270434 15.378681468307867
Rb 18.667848379411495 13.157441518593942 19.074205089905227
Rb 13.933600179874102 13.758858822746443 17.197866481663702
Rb 11.498420939088557 18.110725551538557 16.90346670708646
