14
Energy = -8.96880875 eV
Rb 12.873590161855601 10.888024597799976 13.230399256691339
Rb 12.598113548020056 11.900776546085456 8.5375670313739
Rb 16.424128514780833 14.634832098824093 8.61328002898396
Rb 9.568137258509818 19.295231640020006 12.558109384679016
Rb 9.413004118283471 2.9973151919947787 12.440610361856104
Rb 11.403701578709102 7.3520640375138795 10.272865087029146
Rb 10.13762114697298 9.302162750448378 0.3502021490959714
Rb 12.793995511581004 15.84654106539573 11.298066032519122
Rb 10.257319542888602 8.983530424958873 5.172826336979668
Rb 9.663118424981858 10.503547504530749 17.15812644359056
Rb 7.282518652446944 8.260855496254262 13.46252724712933
Rb 7.832052400426152 10.49569324055833 9.440952223930532
Rb 11.528555301235862 6.593237365269152 15.013079044835301
Rb 8.819336397336322 13.541380598375557 13.046581929335112
