19
Energy = -12.17653099 eV
Rb 14.93052087081558 15.909441948241357 8.917669705525217
Rb 10.97109203452624 13.809232910300963 10.839333738529742
Rb 11.580909769610368 18.685672894281325 11.409718853849732
Rb 15.391490207502315 11.481584846933753 11.171864127622447
Rb 16.324238381900617 19.47344240226634 12.02530530852441
Rb 18.82526438648346 15.174887115684111 11.871457196756026
Rb 14.426768463614314 15.43073658062545 13.861225192238644
Rb 19.993378441513677 10.5879620364084 12.56572808038118
Rb 9.712324537810302 15.976984101705094 15.09783960107656
Rb 21.14056183224782 13.998181162771031 16.043539362752792
Rb 16.83920138502639 11.877588598480248 15.886240825403457
Rb 12.009517319254792 11.377477421115675 14.961905617361912
Rb 17.998846862171415 17.61015982122797 16.22209197115135
Rb 9.424144063932015 12.70415982942751 18.759597615365564
Rb 13.279726968994666 19.714101454946505 15.913987878672192
Rb 14.006962931847353 10.954156997846304 19.559607932110236
Rb 13.259833289448164 15.476669001838106 18.471482989069955
Rb 17.80528086693452 14.407610282001857 19.85347899158989
Rb 15.726860306332924 18.996873513865374 20.214847931986228
