11
Energy = -7.23922819 eV
Rb 10.991429863300285 7.061757010394378 6.407040075529383
Rb 6.290996336910789 6.485751217150933 7.327238809015671
Rb 10.716390706813653 13.084892092028735 10.203803303534446
Rb 13.760442487440482 9.634532578352463 9.335329470581522
Rb 11.154311664872447 11.725685435623301 5.484592635925282
Rb 7.161578376039234 10.946909346988368 8.2571676816704
Rb 9.53890068039033 10.039524292669919 18.194292410869767
Rb 9.668866637957109 7.5462572378743875 10.86560937128795
Rb 12.362733508516069 10.438033214456885 14.030366542680364
Rb 7.549590559242498 10.824612953830643 13.467712424546766
Rb 7.6969610773855335 9.10424651949869 3.3190491732275693
