14
Energy = -9.27761068 eV
Rb 13.669217487740783 14.390952766763814 8.971613536085593
Rb 9.880748336254712 14.183190816062458 11.84338359882521
Rb 17.87786040366261 15.108405553205115 12.247313014203062
Rb 14.587445609257061 11.441024352527007 12.335115970445347
Rb 13.676395725997061 16.483191382724414 13.705275072881175
Rb 20.93852433131314 14.432000991237485 16.116480383439384
Rb 9.368400531308545 17.010833169250972 15.813470748337435
Rb 19.33704446389729 10.688112817105798 13.407411382851553
Rb 11.659052866341023 12.759021130235785 16.11986883304075
Rb 12.623302801492589 20.243909052867817 17.07557262018814
Rb 13.725229928892613 16.265300693867175 19.02072777022978
Rb 17.380302514590312 17.915497196844743 16.131284563200705
Rb 16.342032328020082 13.011076143279526 16.55296208570176
Rb 18.45479061837689 15.587831881172734 20.179868367714796
