11
Energy = -5.81068287 eV
Rb 15.269247346708001 14.190542995680767 11.00125914861467
Rb 16.717956078102063 13.850976015390964 15.148830626757514
Rb 11.847633764180243 13.329616551644577 14.336658993844008
Rb 17.946824492678925 17.9112077454108 12.261382669188505
Rb 13.601489218918962 17.794183412979976 13.919635341103037
Rb 16.550034375055862 21.83126631074044 14.253078808301717
Rb 17.07876877231467 18.231210887301412 17.137371641047746
Rb 14.773185876721957 9.719739167127099 13.668674711722483
Rb 12.945440719256947 15.732107200170237 18.038272710907968
Rb 13.603195719714146 10.844125492246654 18.033876672803792
Rb 17.023778160954247 13.922578745912626 19.55851320031427
