14
Energy = -9.3349312 eV
Rb 15.276129372869548 16.462131691639982 12.225340680564543
Rb 10.988600316899193 13.84476069779018 13.026913127882395
Rb 18.25049026129781 19.698679349545436 14.904359095217357
Rb 15.653139005789434 12.192361393605838 14.05433589004152
Rb 10.671225029955382 18.294626355762244 11.232701073414216
Rb 14.233668894996423 21.102390787680854 12.809957078404217
Rb 19.44467993685525 15.021895475645612 14.005339263409684
Rb 11.4644304251227 9.53945790908955 14.95577554110592
Rb 12.226598294476014 17.776516138806475 15.770656034100254
Rb 20.98726953394528 16.938338443874756 18.058802557724697
Rb 18.74783443604218 12.42489071867262 18.147594643189244
Rb 15.331503117487506 9.19728128543032 17.791346015871323
Rb 16.212133424089334 16.355334003976292 17.529091615056917
Rb 12.72171126238868 13.360749060694573 17.697200696232617
