15
Energy = -10.00300651 eV
Rb 18.255519756567853 18.038699155754262 10.843988489393
Rb 15.574006841021863 13.891025345234926 10.953526163059013
Rb 13.845031798458237 17.608674712737486 8.860120486711114
Rb 20.17428628689627 13.562111362896555 11.281437513879933
Rb 11.012190341795959 15.536014390069026 12.021771303039158
Rb 14.544090977461966 18.34465859812525 13.585046418665824
Rb 13.891266202390716 13.870093087804092 15.394287960788388
Rb 17.729218165036162 11.209320205768632 14.582692408369217
Rb 9.701854320697752 12.118179707911125 16.03858153791427
Rb 18.212050048304583 15.966154628479757 14.951217422483614
Rb 14.776155021051435 17.138163142426002 18.547848240608943
Rb 10.31839556268383 16.786287649056803 16.67842699467803
Rb 13.44835101271844 9.75203380912547 17.408631552304012
Rb 16.698967577433205 12.722162099586226 19.08279456420536
Rb 12.0559784543284 13.693784471871224 20.006991310747107
