19
Energy = -13.26570271 eV
Rb 15.347230512735914 11.902149497837314 9.013230018838152
Rb 16.303637074584 15.602610617946008 11.856548206853931
Rb 19.86953263641594 13.474926923857195 10.27757632048307
Rb 12.349930920167097 15.67859932159097 9.427389866203198
Rb 14.523150856548204 19.890827230811038 11.549325069544576
Rb 12.400796491034894 12.00622738395361 12.681685408532035
Rb 17.130255326887852 10.839675541620688 13.315384299110342
Rb 19.91060157959275 14.72756992850547 15.069402461902287
Rb 12.14978372179405 16.709273731035392 13.963561161385096
Rb 8.987007412440896 17.961811741503027 16.812497571829084
Rb 16.85441953136531 18.63278592509679 15.65261583112434
Rb 10.6349404097773 13.313599060063039 17.170976063683202
Rb 15.28465315543306 13.999205420613048 16.143815390070532
Rb 13.74543170447558 9.663810560016092 16.708509471968004
Rb 12.791559235134478 21.000490557392595 15.925391134983718
Rb 18.404000022336636 11.194009031869024 18.08790993182823
Rb 13.351063957448794 17.247399149320756 18.822369743232272
Rb 18.049111177890335 15.813459292327138 19.391532999776846
Rb 14.219597191390868 12.648272002094766 20.436981966105495
