17
Energy = -10.70197178 eV
Rb 13.069420249226479 11.533571758722529 10.593517210714959
Rb 14.887308316948488 15.901475937826207 9.929373600075309
Rb 19.524924953494303 15.662443277671597 12.562580062041025
Rb 9.945746626398895 15.00109309267951 10.956273713383013
Rb 17.701175458789322 11.799757700420157 10.829006289306653
Rb 11.915125900748686 18.731053228821946 12.715271850422774
Rb 10.40717904302734 11.850771125696646 14.427706338678645
Rb 14.593051449614718 14.608890511135579 14.37535790901246
Rb 16.45138650035646 18.89481183457139 13.948742618509558
Rb 13.126909712707421 18.295277044657173 17.416812056719973
Rb 18.57823837032456 16.237455645848026 17.1882401997071
Rb 15.10968348216372 10.113929603770321 14.915640408350377
Rb 19.5752930444885 11.84137622523454 15.136593136114387
Rb 9.241269788156242 16.199461030748225 15.603071276567743
Rb 16.84331461777111 12.154251586727852 18.844297176477383
Rb 15.515450322241316 16.210527495169192 20.855362526862482
Rb 12.250464167793337 13.699794904550608 18.438095631308116
