15
Energy = -9.99724607 eV
Rb 17.369050781436894 18.61986946646407 9.657331347150635
Rb 14.748747501021684 14.490531894491983 8.822050289802728
Rb 18.531969966482606 14.404602133636253 11.578687560528616
Rb 10.774523156129614 13.55306192189623 11.200587719129937
Rb 14.368854811011124 16.870390656370105 12.801491124822007
Rb 18.543664841091243 18.49557881107172 14.27923654899098
Rb 14.656250355620372 11.976021538944254 13.112740205466986
Rb 10.167499173620163 10.536536720537027 15.056015595533253
Rb 17.356287747859685 14.115700576789353 16.13371576852785
Rb 11.49863811677269 14.888167290286427 15.731586194220505
Rb 14.67439509668233 17.591697950130538 17.581461016837284
Rb 13.889319921453538 11.46455456411045 17.925439574396606
Rb 19.338130976168564 17.490381812517903 18.90222960400087
Rb 11.618057548835493 15.011197162851321 20.30042257393819
Rb 16.34848321096915 14.375580705056755 20.800878081807934
