14
Energy = -9.33680891 eV
Rb 19.547539995772468 15.66315444358632 10.304429141712392
Rb 16.00108176495181 18.800351440861213 11.777959854067966
Rb 11.906925818541994 16.466613006917253 12.3610166229583
Rb 15.743814496049527 13.885644966500777 12.543331850891523
Rb 19.89100440994866 12.043276574297138 13.597603896262576
Rb 12.13278623782594 20.815576503671338 14.122346874513656
Rb 16.054992980738593 9.533645575453647 14.990155422235306
Rb 12.19936106951044 12.840742047154556 15.32977727510569
Rb 18.805052008807408 16.524331050779917 14.859684291987787
Rb 9.763144629818942 17.268247683777602 16.5545225919302
Rb 14.42470959327612 17.229767702628497 16.222634859638347
Rb 16.590342807030634 13.298656495991697 17.43940611002203
Rb 13.45075913995274 9.867976448760484 18.95481041304678
Rb 12.11744495305804 14.39097596490349 19.571280700910915
