11
Energy = -6.91703052 eV
Rb 10.39136108386783 7.922664579707222 10.234672314587975
Rb 5.111967686276271 8.199836930799437 9.079761868391559
Rb 15.002358760461494 8.671695712459972 11.754164149419621
Rb 13.04498659176451 11.424913288104545 8.341574945555477
Rb 11.846956502599431 6.286749758845339 14.535985119389698
Rb 7.280871632487902 10.630033999574643 12.569852482793475
Rb 8.206124369428347 11.428250376797923 7.66197337706347
Rb 15.258385176021699 13.420731620823421 12.133610552318412
Rb 11.669439760687075 10.98772036084359 14.32487520772467
Rb 10.445364973831786 15.419564034965516 6.661045889460803
Rb 10.321578984208395 14.187234858712808 11.281879614929592
