12
Energy = -7.72745432 eV
Rb 4.6655246706659765 13.7768829454757 10.057698998760412
Rb 13.728238935141263 5.154839290061308 9.224176547553027
Rb 14.73719935685204 8.563124971749966 12.313355880856923
Rb 9.920405497871874 7.394484824790359 11.76942165206077
Rb 11.279867849672556 9.045068804037397 7.514238243838475
Rb 9.027764898830132 13.40282759168425 7.913364151093446
Rb 6.4072384800365505 10.840342190757315 13.43401126546389
Rb 13.167519933311238 12.610261466681814 10.102429502476733
Rb 11.11229087270514 11.259167440876054 14.140557785679446
Rb 8.745664131610319 14.946323843871122 12.335982312257569
Rb 16.073523831604874 9.05839669683248 7.773701094291345
Rb 6.644059297314658 9.457577688798738 8.930360321284164
