13
Energy = -8.21837506 eV
Rb 12.49066673935055 11.55825502401295 12.800288337470874
Rb 11.687940050841235 19.494695048642242 12.77206821346148
Rb 13.855520432830996 15.770395682922823 10.90905073051966
Rb 16.813242622765582 13.455207696526237 13.8257506714276
Rb 9.29317494633055 15.28514856416181 11.957931657657678
Rb 20.351378551659497 15.62666671774906 16.256337106911275
Rb 16.46062234682958 18.118646289409185 13.988566472638833
Rb 16.370043672955756 8.807522799420322 14.295780188380796
Rb 12.418682316320789 15.625766640804935 15.443292588641153
Rb 14.109519470209888 11.63418106631845 17.31049858446036
Rb 18.81654540313349 11.39477520269171 17.63919234115302
Rb 13.609486344830966 19.984057553114667 17.059249540788723
Rb 16.191574485761677 15.71307909804603 18.210390950308657
