18
Energy = -12.55104197 eV
Rb 16.5927653832421 13.446328446630147 9.411478221955704
Rb 12.70962211666299 15.883618695745263 10.334697172563368
Rb 13.369871716064685 11.055374818735661 12.173587978524317
Rb 17.344692820826374 17.177612574789467 12.113638017317854
Rb 9.683077126600413 13.678668273492217 13.489015490438502
Rb 17.52741987104739 9.134059222031166 11.22847671479349
Rb 8.82331548189596 18.0436690555472 12.201295724235177
Rb 19.832087672403496 13.11520975133325 12.612167914503518
Rb 13.090565573920053 19.54357189582392 13.18775400863616
Rb 15.63952679114878 18.83109699783051 17.090276650073296
Rb 16.77532096673561 10.609174127443088 15.59049650402286
Rb 19.01224934742741 15.349784051172847 16.58636972783522
Rb 14.53640083345975 14.88128690169063 14.741148266049835
Rb 10.628554452828244 17.047597884220526 16.575292961505557
Rb 12.266870390052217 12.219865272966281 17.468861920690433
Rb 17.927706717936754 17.05016401291951 20.771834663951733
Rb 16.435857967300013 12.58077345208439 19.77818696467903
Rb 13.345111834376508 15.893161629472678 20.186438162152847
