17
Energy = -11.71918622 eV
Rb 15.836493195858516 20.259535422989515 16.377284481830397
Rb 14.294361262628573 14.473792240159518 14.644821554656904
Rb 16.903284801906604 18.18195549602103 20.365160467557182
Rb 14.67258282609094 9.936554832782623 16.245569484657196
Rb 20.736755655398426 15.72726007096792 11.755212892365568
Rb 10.559966915734336 10.715603991190964 14.159183365846046
Rb 16.969698281170224 18.296972117485286 12.316671940649302
Rb 11.706564589348467 14.182939062440584 10.915520437657031
Rb 14.684616585289037 10.41789322201421 11.618431689241392
Rb 12.62011770876142 17.338598220207412 18.50996881472195
Rb 19.24139899823689 16.796663999549764 16.31044702012554
Rb 11.579853186960023 12.683693765116388 18.56042945457991
Rb 16.689441649584857 14.199423542506064 9.888219346256516
Rb 18.431345119230706 12.5038940146372 14.263220289004822
Rb 16.42666963246721 13.895938526831047 18.664736706547956
Rb 12.483161479276381 18.57448497336487 13.630849190703623
Rb 9.505559073160182 15.156667462838698 15.116143824701597
