19
Energy = -13.31487283 eV
Rb 9.934952810839095 13.613901692159937 15.64431813059326
Rb 15.689671616643045 17.59202606118107 11.306358188089671
Rb 14.252135639608676 13.096003328724997 13.632291367429724
Rb 14.851144072787909 16.278696155540295 16.14087627247857
Rb 11.248247430767236 10.141827825049361 12.142373587754115
Rb 12.535453912596696 9.714982110341762 16.894634898143984
Rb 10.660516293518175 18.006087445385447 17.671280130919122
Rb 12.53224392817398 14.218463001916115 9.417857076391055
Rb 11.12332575212589 17.33848416913535 12.859298353851832
Rb 18.36158811381739 15.635944134521834 19.205687852146756
Rb 20.319975913177785 16.65159848649456 11.05425818823099
Rb 19.07962528992944 13.708427019475865 14.588583976741186
Rb 18.70762116911283 18.70033854809832 15.260387889360148
Rb 16.5478064193317 9.234646701152743 13.583852981411335
Rb 16.731660115824102 11.304045707034952 18.060199111759477
Rb 14.953420193258633 19.07207933166242 19.74386351423621
Rb 17.26237696614962 12.947490878202139 10.021071165508236
Rb 14.087743813639843 20.737822706940996 14.971511983437882
Rb 13.096161651757571 13.98280580004027 19.77696643457592
