16
Energy = -10.75991671 eV
Rb 13.939197382526716 14.452906258675503 9.653900779755633
Rb 10.967043037218556 12.337135092625056 12.867817046468748
Rb 12.195449626229603 16.83456234833783 13.303589242004668
Rb 14.529731106542279 9.831804448933852 10.879135089643807
Rb 19.8726242513001 14.91293910178563 15.005342948908652
Rb 16.79531830864875 17.241988361585722 12.141831452716852
Rb 15.527967476780285 12.988909577177507 14.043829486303132
Rb 18.49002805430061 12.86876180605068 10.597032723886615
Rb 8.29379008750691 15.591129809383142 15.628248233203111
Rb 19.365517809237563 19.691794703422165 15.948401194465468
Rb 15.76714533911391 17.14107982576487 16.667566202746585
Rb 12.463953139409414 13.843150218222286 17.30137873801895
Rb 17.244822988885133 12.880212690047898 18.529700491483194
Rb 11.318561228798972 18.0919858559903 18.472191147849653
Rb 19.73200794075942 16.587951787209974 19.595522453282076
Rb 15.176602079610529 16.383447971656807 21.044272626131914
