22
Energy = -11.1196187 eV
Rb 19.80203638385105 13.021153711327031 14.828679319389602
Rb 18.64866528948361 17.580274799505776 12.932324767433
Rb 19.120221688521166 16.46481912704903 17.884495010797483
Rb 16.337800172315767 13.734805800387644 11.401320620037616
Rb 13.778726454837322 17.9591736462069 12.616041584730754
Rb 15.8770502822101 10.255563940547377 15.242611644030731
Rb 17.82101421044134 20.167360710642967 20.727998876534027
Rb 16.503362031473152 21.912692245042066 12.977599609626738
Rb 19.203109034000256 15.872896247884224 22.45777884508546
Rb 15.385276384064788 14.792357792144992 15.761466506035077
Rb 15.632297753522177 23.81507710853089 17.512049016978647
Rb 19.99806734523949 20.94689038948938 16.293889277334515
Rb 19.753938066321926 8.414665714482503 16.810780831546058
Rb 15.670579702566192 19.25223632624172 16.693997004460623
Rb 11.540511572383648 17.129990826603493 17.145008866897005
Rb 12.06404551795502 21.791768463289863 15.35626964496738
Rb 22.77237014708296 17.158088419605857 15.171489459162721
Rb 14.865306988523395 16.21308872028866 20.66262254814971
Rb 17.652516006131762 12.255309266147654 19.226286627466077
Rb 22.420806267826762 18.801517508940428 19.925376394394373
Rb 12.772000553111491 12.449022653712818 18.740368819316526
Rb 12.950145850111994 20.581094283903937 20.201392427601593
