28
Energy = -20.2706235 eV
Rb 17.887897448057313 19.73239130710166 9.517130667414273
Rb 13.62837437018785 20.123881895505576 11.844054417971993
Rb 21.508102999017925 20.91509074704345 12.528988559971861
Rb 15.339408150129222 15.287989024688557 11.70586256201591
Rb 20.305234625101438 16.071445500217994 11.760392608182665
Rb 17.760013453485385 14.684004885532973 15.617290487792639
Rb 17.45017803440047 19.017700959807772 13.952639022663131
Rb 17.992096800103084 10.896787530604913 13.130797702945673
Rb 13.858775217980225 12.116558868416506 15.409120849399669
Rb 17.168909189202772 23.52140480228468 12.813835914696085
Rb 21.79589322043711 12.73419213304695 15.590840538451447
Rb 14.2647296052102 21.531593871032634 16.546752639699182
Rb 12.978965717340689 16.91240599239901 15.607449507266708
Rb 21.537886778965778 17.734617687322306 16.29809102991826
Rb 19.51234749541881 22.206711240464386 16.784791671999734
Rb 16.41254185126565 0.9592156822471967 17.30751023975271
Rb 17.94253945223966 10.33493919154886 17.995058448248734
Rb 17.16329072974336 18.21290528964485 18.403977121299476
Rb 10.896376174581325 13.890046441284795 18.936128491711358
Rb 15.394985259579164 14.10556516842864 19.44756976747674
Rb 20.213924760990803 14.514499919924093 19.892530807018783
Rb 12.94316087886692 18.296593741462228 20.25650099212479
Rb 13.603711522118806 10.03862502084418 20.347083231311135
Rb 20.78020457293485 19.417413107208574 20.81533161139976
Rb 16.387115931275265 22.141122833157567 20.709066645921517
Rb 17.544204264783883 11.70476553186701 22.834227246725597
Rb 16.996910315755308 16.706416549540172 22.947651584702083
Rb 13.097460126158396 13.768788574915085 23.36456457724975
