26
Energy = -17.57335101 eV
Rb 19.6064338603023 14.460226081517515 10.416674732805303
Rb 14.161378704773924 13.262169585408332 12.503271557998342
Rb 16.241198085798437 17.6831950936061 12.065033483727351
Rb 11.1479743140306 17.075060683321723 12.687287167088627
Rb 21.104702308723724 17.84296227930047 13.432831108457256
Rb 18.26906794913363 21.856564110054155 13.691736532707278
Rb 22.96479611931614 13.724285186702065 13.993089261037888
Rb 18.19718579113914 14.153405745774043 14.821442690471425
Rb 10.253304921388903 13.62679887523559 15.70991000044912
Rb 13.743200395790778 20.749064885720045 15.126452612949835
Rb 13.966344089323824 16.117710972512207 16.19069881316484
Rb 0.6916900274908878 17.421018104844094 16.211888763600008
Rb 17.715094896222443 18.427823471275754 16.771484677521617
Rb 21.670495397614552 20.59918970445364 17.460090740259844
Rb 21.427304578535573 15.876416860320804 18.145835223672567
Rb 19.847286376876387 11.402439510866383 18.035903559435937
Rb 17.137972439877853 22.680967214657453 18.367039542772925
Rb 19.100147549126223 18.985834829913646 21.343258182596838
Rb 14.770208577090463 11.737915774925192 17.27723265185722
Rb 14.155671171982547 19.299040463163948 19.824258654907695
Rb 9.828694218464882 18.01910064953423 17.709746698863395
Rb 17.026264171622604 14.900586043705738 20.025221577979455
Rb 10.39972731068354 18.724015701977315 22.54294149149259
Rb 24.15962970465787 18.719071622557312 20.86827228315245
Rb 14.884988895303039 17.1224225383226 23.73848669793703
Rb 12.18441166804311 14.817693434356233 20.324890717119914
