29
Energy = -20.49041022 eV
Rb 12.539287966924421 17.16514067548355 10.813384506162514
Rb 17.034758959097452 19.127167460298086 11.628383434778844
Rb 12.974171405324853 12.33739458506362 11.009120556618468
Rb 16.560661895023845 15.17883992788399 9.02738809569851
Rb 12.987222050033015 21.857586830617215 12.132092856411138
Rb 11.22902848635154 14.619950245138556 14.868425226619046
Rb 15.93608437047147 14.602152601751637 13.552118150160368
Rb 9.380080819762687 19.178685188738633 14.174845643768403
Rb 13.756090739810542 18.583880857986436 15.235025736594327
Rb 21.19105731380584 20.382147474574996 14.323928495415963
Rb 20.606644061833006 15.521986459626705 12.91644410333669
Rb 16.728093039356388 22.22981558091612 15.620698933971367
Rb 23.64836247580434 12.415077048346605 15.955053309351342
Rb 18.119049757715445 17.729958541502302 16.200395856070926
Rb 22.6812712463119 16.71953709098953 17.39940329995378
Rb 19.073252894619856 12.909257159530329 16.7294809887405
Rb 11.753915294005383 22.335972745136957 16.92483307546178
Rb 14.504163811923627 10.991128798166512 16.241079138100332
Rb 20.301708240863 20.666919888764205 19.275335547967664
Rb 14.664865911838994 15.008847236395452 18.359349095265504
Rb 10.975770276421214 17.848105643735558 18.8974830499172
Rb 15.409968934291063 19.85868402574582 19.733111451585096
Rb 22.19996081725734 12.970323794511037 20.558697001508687
Rb 18.859049477808888 16.27875218673278 20.382448129891845
Rb 22.89537805752267 17.604838745023564 22.19860913819862
Rb 17.199434599475257 11.948200726006327 20.94975701915395
Rb 18.58645106336258 19.384491541672595 23.781246829453494
Rb 14.938059481690683 16.203930059857424 22.917398917106485
Rb 19.560747847316104 14.63581817582686 24.489053708760377
