29
Energy = -20.3187989 eV
Rb 17.796969758227554 13.866842843583417 11.696073990364882
Rb 14.493743721320346 17.2625572075825 10.650926374658507
Rb 12.771179284802901 14.579147120138877 14.031756517082915
Rb 17.93338265441151 20.230140791406082 11.45111489038671
Rb 13.352984055247894 21.74843536582814 11.040251289452108
Rb 16.179869424520945 11.633548022613114 15.881483590756
Rb 21.481120519621083 17.138264625721806 13.302845750916626
Rb 17.398046128945552 16.309481532089976 15.301846456200682
Rb 10.240587598759468 18.621875437366487 12.553099361283449
Rb 19.076362156849452 20.87955184185378 15.91344923002956
Rb 9.659288582177883 17.40028188097636 16.980418297293365
Rb 15.933533345880743 23.921651459872873 14.043251427102051
Rb 14.141716566802144 19.275586584806696 15.307027279467817
Rb 0.5173471607488874 15.060634187017824 16.12126614081525
Rb 21.0061683451829 12.82207441544134 15.463298388119146
Rb 13.486241788287899 14.936497540509265 18.57300463798853
Rb 11.061893577536942 22.356771767225904 15.884848645999952
Rb 21.685953078818834 17.466180824365164 18.10858737203051
Rb 16.848555060786612 18.399210416436144 19.50408541949987
Rb 15.428329768256578 22.707984222543672 18.52768992905649
Rb 20.02985124813732 21.34548620107731 20.609246413447572
Rb 18.343478165809387 14.030661400856328 19.30568446823929
Rb 12.346392606574932 19.324406302934353 20.16648462014258
Rb 15.289683389939967 10.83667778210039 20.777957952065403
Rb 19.68878936099938 9.670906803734045 18.956530592309157
Rb 22.964785017813764 13.199408555446515 20.033416943010877
Rb 15.566760401997655 15.317513338334004 22.9236240669355
Rb 20.495835453176113 16.670068089467073 22.619780057525094
Rb 19.206184458012704 12.021150934322678 23.30394739347082
