26
Energy = -18.59203754 eV
Rb 19.447968445241532 14.762725364921312 11.489640730249242
Rb 13.954889885516145 20.958899508396186 13.412540437471081
Rb 16.931903197241585 10.7445095768839 10.89222794845493
Rb 21.776456565816975 19.27333317076037 13.694693646244795
Rb 20.16353081616248 10.56548365104273 14.271850068150346
Rb 14.518783605992567 16.316137089495353 11.082169707549708
Rb 17.462892326954645 18.089443859005364 14.132173402324199
Rb 20.787597539117048 15.097195044159418 16.06927328200872
Rb 14.143277061774977 24.633907597779842 17.051433459874275
Rb 18.37058171608575 22.755253373785727 15.235750064303515
Rb 16.058863951690356 13.411161339623527 14.501564545946257
Rb 12.571458603115824 16.702753980305094 15.510555205456903
Rb 15.78082579152909 8.86094572730099 15.418832948959725
Rb 15.329270431719044 20.284277267023636 17.797116609071374
Rb 10.824693204552162 21.16997993444601 17.464424821539613
Rb 16.670230333706748 16.016329098144617 18.25642707384687
Rb 22.805532284625038 11.373098802289366 18.06055794913235
Rb 13.237737574983262 12.78287320872295 18.23898501646484
Rb 18.09105097383059 11.46630636573682 18.558754233726408
Rb 17.805810118631385 23.585106705817008 19.94764041727213
Rb 20.51560891759416 15.331751720580266 20.850304112712237
Rb 12.498516755282234 17.22805692281274 20.257207706012498
Rb 20.300706882387647 19.40976479085803 18.25041004573446
Rb 13.397904458626805 22.281799534018496 21.47290597401017
Rb 16.95065925138259 18.922222746750297 21.99048752986039
Rb 15.765494159649615 14.1389284725502 22.25431791683182
