24
Energy = -17.14460102 eV
Rb 17.3333971778653 18.81235338734479 8.147667157229261
Rb 15.601638461214188 14.63816389707172 11.04535805277793
Rb 14.300884680457328 19.493790343839986 11.545064522250755
Rb 11.213970762495112 15.710158377317475 13.166319010212916
Rb 18.899143045767257 22.272453290104046 11.211076484949917
Rb 19.161625398661926 17.688673847810268 12.622921986630438
Rb 13.890167713039887 12.119430750760538 15.134316010628668
Rb 18.780349090605306 13.071472483204847 14.637795178619234
Rb 15.376337987644527 16.844580838971876 15.283215491237055
Rb 22.767102272498 15.909065807029872 15.426940117573468
Rb 21.321085654674096 21.203964885967 15.2336414477929
Rb 16.542149478491712 21.439456805324316 15.696382050307504
Rb 11.719963897868952 19.860518204161107 15.902549424245539
Rb 11.38563942366854 15.394923826224593 18.133171408193427
Rb 19.26643453645889 17.70579931452439 17.810149655546073
Rb 16.001961348055534 14.438101969746098 18.90327728238799
Rb 20.615435575833505 13.412873827171023 19.404265625439212
Rb 17.23972050149549 9.929881714396526 18.156211053111033
Rb 18.102661638681703 16.868765287703148 22.45930482184281
Rb 12.90189417948144 11.024685452342895 20.254472962742728
Rb 18.73217973271872 21.580141734742046 20.168066651606424
Rb 14.46815370217107 19.223787208954366 19.893455141665253
Rb 13.427240447673313 15.295765323598621 22.859479181659633
Rb 16.94618141038548 12.056509539595723 22.900217399257283
