25
Energy = -17.84149467 eV
Rb 10.724840137577452 17.32193258391747 12.59526953813558
Rb 13.790131899302443 19.708376177277938 15.13529434990993
Rb 16.74344597319936 10.788501467743252 13.273899514439616
Rb 19.21871703003892 14.965609786269825 11.528019868993695
Rb 16.08175078481293 18.916159007568822 10.975724518254124
Rb 22.87648355708068 15.662283915466647 14.806693368796294
Rb 15.00280560773088 15.327428149994713 13.592074620926653
Rb 18.98706702498477 18.781880811838654 14.65156223948224
Rb 21.676028170240965 10.975644572282958 13.774956835773645
Rb 9.28751400941078 20.334016706923617 16.103336173087392
Rb 11.711036136448087 12.296574765241065 13.535440551516798
Rb 12.85756266260758 23.71664740650304 17.191359038409356
Rb 16.74620756990229 23.031084398526065 14.056309323964255
Rb 11.262014782576037 15.835231206807915 16.987559977070262
Rb 15.898749522553048 16.732395372770466 17.970421821244695
Rb 18.88777571895747 13.877300591699495 16.068235939246595
Rb 18.964859091131284 9.361257478590295 17.27152213643091
Rb 22.67749693980235 12.413297709590992 18.34063655585327
Rb 12.599716621742406 19.708862522253213 19.81824948158076
Rb 20.525897685913463 17.439237597009868 18.92113127727491
Rb 14.534151645563568 12.112574865247357 17.430626766239964
Rb 17.14352279145383 21.17275838358477 18.44415723581323
Rb 13.41672880815271 14.80334866445572 21.311572755775558
Rb 18.160611896755192 13.430682579765662 20.70660203127851
Rb 16.938530685337923 18.000560031946595 22.22299083377764
