26
Energy = -18.29023158 eV
Rb 15.483481489067751 11.31170178034727 14.816605101786218
Rb 20.965542793941406 18.088859428998255 18.641286199746368
Rb 18.773416083123607 13.69825139658109 12.172197379008681
Rb 18.435733536879486 14.50520653043465 16.818932631792837
Rb 13.497003270881208 18.229639071969473 21.36682967584754
Rb 15.075228531373321 16.15632341529443 14.17591979295443
Rb 15.264168289994602 17.288264240859537 10.10420361513081
Rb 11.229405563926711 14.257953988315688 13.563769897972724
Rb 16.30428965047353 18.607402134175278 17.84957096753511
Rb 11.655156789967354 18.628218294164263 16.694363015996526
Rb 21.73428336073795 12.94228552018844 19.566248604891832
Rb 17.78243011307442 15.755800640945763 21.350139038697794
Rb 13.687831616532245 13.357323840070597 22.542633097727474
Rb 19.268904999103423 18.36985791520245 13.982800241550203
Rb 11.07756316266532 19.07991996106337 12.081859900269205
Rb 14.607670625739622 12.371425247557463 10.336648202270698
Rb 18.716959492576613 22.314969614875753 17.016713441730502
Rb 17.102875385144834 11.179387742884797 19.58270851786615
Rb 17.619474060468743 20.91871723068891 21.56842031279922
Rb 20.26684433136 10.321796613732323 15.552535506653037
Rb 13.895767295303862 22.613978283787667 18.61468376422248
Rb 13.595798023419565 14.380868475767242 18.150542618392155
Rb 22.609897472226635 14.821442024438383 15.1531920421105
Rb 10.629475059133645 22.941482758382865 14.965571244748796
Rb 17.92171964687078 9.007536138184756 11.472425748951611
Rb 14.95419729792696 21.00650565300422 14.014317381260371
