29
Energy = -21.00403491 eV
Rb 8.941237081658457 19.78744862864777 18.26156660206374
Rb 12.264580505175031 22.31934099271538 20.725663680445948
Rb 10.884972311813941 17.96842654999391 22.446174719025002
Rb 12.49587213997456 22.162226498077683 15.66422179985465
Rb 10.026625853738821 15.036258325791568 18.55279017793848
Rb 10.974122808551297 17.56719292703021 14.287883410435684
Rb 13.1556728873618 18.387067245712977 18.44733591480889
Rb 15.722855774081513 19.151141521100257 22.462322810478135
Rb 13.376590715525442 20.49698756733083 11.16240743195002
Rb 16.599635564234905 21.98654270501206 18.489505810458155
Rb 16.871945359700746 22.79973197995357 13.709902293016029
Rb 14.185701991390108 13.997354992994824 16.157724431547685
Rb 14.392826796902469 14.369641051631525 21.017099452879734
Rb 15.672528003067253 18.411776977853762 14.440582161570951
Rb 0.16770887046116578 14.878960412145473 17.831064740457165
Rb 24.514290154688087 19.491900361442255 18.256188697483957
Rb 24.01655952320078 16.671877978221723 22.12984156883852
Rb 23.438764701605546 17.109623791187833 13.985118248059715
Rb 22.82973195671292 12.24521387328034 20.4888284045838
Rb 22.38798573193269 12.248669531503747 15.389309217122882
Rb 21.523661557879578 15.945080435520794 18.149785251852713
Rb 20.431064471020324 19.94973012862657 20.983299402781554
Rb 21.629673201440777 14.199519556103354 10.888175958150624
Rb 20.163704908680508 20.065299344423664 15.982501818782454
Rb 19.409906368874463 18.573082740031435 11.540897702965225
Rb 18.121518813375477 12.277349594986497 18.415647860269345
Rb 19.205756337580425 15.142690094658283 22.350367218005793
Rb 18.550918165439377 14.713930224858553 14.287958393306678
Rb 17.34273151263462 17.031784572809453 18.481685424512058
