26
Energy = -18.62331643 eV
Rb 11.368804239209211 18.962694131296136 15.659644524638976
Rb 16.791207856130974 14.256990930260747 22.217474839695186
Rb 15.80957388654804 20.16475607134925 16.455318028237457
Rb 13.970215793981815 11.561832182180654 12.467073208064795
Rb 21.566831916947393 14.38834409753238 10.714014774086122
Rb 19.087959866461052 22.38067344574695 13.966337100022605
Rb 17.83163502024601 15.820273281617196 17.619720736115266
Rb 19.369627829589188 17.53443917445993 13.52870468113021
Rb 17.92886683098931 23.346416085520186 19.258475922687015
Rb 10.792359493996539 14.011517359660928 16.01557516411687
Rb 13.247150672796323 16.522638978259657 19.4704466625662
Rb 19.812995712723094 11.726440672042257 18.929053337451585
Rb 15.433518836780303 19.69150388023869 11.544509829671101
Rb 13.877477425368959 18.050731146613302 24.094772640283004
Rb 13.261779834936586 21.24950719174546 20.59519797503787
Rb 19.347331588329023 18.549456016296507 8.977288954273067
Rb 17.631840937416808 18.956984575445272 20.938696037221572
Rb 16.70413989185184 14.655004211824842 9.91456726963699
Rb 22.422872495141934 14.899236537137584 16.185229008357318
Rb 14.939609217516255 12.071213472316751 17.67276352860981
Rb 18.58308193297487 17.63442848940961 0.08519776060800388
Rb 21.441265786850554 15.869976298378143 20.963504008664803
Rb 18.611852130619383 12.424661677914788 13.9788894196053
Rb 16.668285570586583 22.173574365018688 24.12632167600451
Rb 14.73438940563078 15.837722075615893 14.209391453462201
Rb 21.109133845219112 19.60279167096088 17.534178750341827
