20
Energy = -10.73179164 eV
Rb 16.06460600759712 13.721456553812287 19.59051823215111
Rb 17.314084447123317 18.892840303806487 17.022293838743995
Rb 15.860466714070549 9.872983289407435 12.78574751839299
Rb 16.495925406134063 18.617883114166492 8.867427090316784
Rb 13.420486846379838 10.635018098203364 16.793176377378728
Rb 11.950717788662717 12.721218213113547 12.688779577356021
Rb 12.942815137358872 17.32377174828246 11.647566923719426
Rb 16.05640079660399 13.995872583838576 10.280407691062491
Rb 18.689718715835824 17.163999571472843 12.763568276549053
Rb 9.179754792375473 16.209727964375233 14.33996687087636
Rb 8.75851912569542 11.7538501036096 16.01328342141424
Rb 15.739117608709313 20.898623529796502 12.991906538250594
Rb 18.277571055360195 10.460016772959635 16.777505251913716
Rb 18.878565293684996 17.167920570754884 21.11125619519944
Rb 19.78749482828318 12.459692303382335 12.794536752036983
Rb 19.928691589697156 14.908090561418467 16.968685982273843
Rb 11.590340578517326 14.818781818372438 18.18230348730916
Rb 15.45950348787505 14.69383815670699 15.05891915929536
Rb 12.669287453923967 18.94166194061851 16.093717309059265
Rb 14.217959553578236 18.024780029368365 20.51046073416752
