22
Energy = -13.23226411 eV
Rb 15.682911237742161 16.50667919769894 10.189544546098666
Rb 12.419571249793618 16.21255021387498 13.639655682326731
Rb 13.5221591136201 12.107878934774671 11.569683780617986
Rb 20.499437212597467 16.417094631355024 12.348198055415008
Rb 8.799138803846045 19.325728320313203 13.923048925448155
Rb 12.746848394879793 20.42282403409293 11.645913266887762
Rb 20.978791486753217 11.932971586120953 15.233987761900524
Rb 16.83788671371462 19.14525653023023 13.858401208165958
Rb 21.129462357336084 20.455272428871744 15.044914056536609
Rb 16.95600312656696 14.045017474455317 13.946750342568695
Rb 16.544202364117393 9.519037278744014 14.631432198827033
Rb 13.096520716455561 12.281512873963338 16.474269380588563
Rb 12.942365727237654 20.265725226644502 16.431460393144416
Rb 20.160188852903413 16.259759337851488 17.068389992582127
Rb 15.346602340771053 16.335392669047465 17.479881205632772
Rb 17.594043209446177 20.26967792244606 18.397465503472997
Rb 10.629430503439078 16.322023199111452 18.021653145944803
Rb 17.64008913595675 12.203799467002893 18.525167496273173
Rb 22.320761471332744 12.68295899843025 19.613126620710634
Rb 13.730058684009919 13.86320387720798 21.032047481819596
Rb 18.0964509070783 16.19481005785988 21.297096295456196
Rb 13.781126569535541 18.684875919037157 21.081962838714567
