24
Energy = -14.9303028 eV
Rb 12.892203805303813 18.17321402300176 12.491536028659755
Rb 17.742069541767467 17.165006953851744 12.37943110207842
Rb 22.298291485057813 15.813882350487878 14.066262636358397
Rb 16.05821290154371 21.066106293072412 14.735808838489138
Rb 18.49709104239843 13.428578191598426 15.405491153170981
Rb 11.712895052010838 23.064864290762 13.924333709954137
Rb 20.840387675728643 20.669992889799172 13.636721968780835
Rb 14.519717869096226 13.387264795283581 12.788971180168268
Rb 17.258924978059394 9.044830669325487 14.622588976408142
Rb 10.874180833801079 14.991015979482322 15.612441500395335
Rb 15.123864135283641 16.556245415174857 16.237833703119154
Rb 22.126866993233627 10.615824989234266 15.637055169382881
Rb 19.44705294786199 18.01788089636875 17.004933914200247
Rb 21.85043668341 14.20698284174271 18.745687294291233
Rb 14.497270653308547 24.32961211333056 17.607297503392775
Rb 18.889794738120525 10.254523109052807 18.884324498352804
Rb 17.352115742438606 14.741097597102724 20.147755266669414
Rb 11.71705511556831 19.72964449557688 16.967607423943548
Rb 12.714162219095028 15.893549531086663 20.16475096749149
Rb 15.727369327261734 19.81714859650303 19.702766217933473
Rb 14.398234823802671 11.883897621473414 17.41062971861165
Rb 19.008992640476897 22.708926806633738 17.950697855356776
Rb 19.983499721129395 18.527330082333506 21.456765075336378
Rb 15.769332741872942 17.212603135352282 23.71833196508573
