20
Energy = -10.92167851 eV
Rb 11.755855743806192 14.964247032289101 9.342507390293699
Rb 15.63987174086518 17.746647196951287 9.748654482837784
Rb 16.279014160637058 12.697778552462767 9.63685401568258
Rb 9.735952935675916 14.062649259905818 13.659970314174023
Rb 18.922186945216858 15.521603739886107 12.520001990027065
Rb 11.512825353630278 18.557291822049645 13.427469319498103
Rb 13.059393545321415 10.492943677350992 12.677046200475717
Rb 14.19496727568967 14.87245752695977 13.015266085802365
Rb 16.310747271539263 19.288137514139567 14.230969605548376
Rb 17.422928473879693 11.376402521326048 14.385732468268376
Rb 20.834046890537596 18.69265741208338 15.318457343592119
Rb 20.185831025507884 14.275538540042037 16.98617961688625
Rb 14.880677132594196 8.13364771440203 16.576391467881976
Rb 15.665637458181667 15.448856322198878 16.80458540451979
Rb 9.970548657854629 16.465072159618835 17.62890249973385
Rb 13.228368694661311 19.621579111749554 17.857218902904563
Rb 17.831004691423786 18.461144229997092 19.08150709325566
Rb 12.343369794876342 12.138970595973362 17.238552115120086
Rb 16.725848458024576 11.682567815934513 19.174108066654927
Rb 13.472930704905345 15.4718142095079 20.661632571671216
