22
Energy = -12.1848337 eV
Rb 16.781703724032322 15.991390357625317 11.668259056231431
Rb 21.02823746880699 18.504589727917992 11.430644091426158
Rb 16.613295474149684 20.88571761301568 11.862335554043879
Rb 20.707469803032684 14.519715744637232 14.080114818731552
Rb 12.65285812864703 13.739313382087103 13.697176271839908
Rb 23.225082379251983 19.00317709262031 15.851516397142847
Rb 17.028186072436267 11.397705025470335 13.176212636180928
Rb 9.182293779528628 16.62813814737197 15.337867036897364
Rb 8.97242114631775 12.133228055942558 16.68786576763909
Rb 18.628816097933903 18.678248293929798 15.351874063003043
Rb 11.483192254657498 19.92325505765473 18.272294654985377
Rb 16.45549046980992 14.815335519354505 16.244016956897166
Rb 12.279433518420056 15.128092912323668 18.472521801216082
Rb 14.200446665519351 10.871233010728927 17.280261659213956
Rb 19.20636432923014 11.29543962825324 17.50217844756672
Rb 15.782929884344817 22.04776743097556 16.71125474379735
Rb 13.633622948263792 18.315529059867476 14.548469902359722
Rb 20.06665224765169 20.47665603358074 19.371296553086598
Rb 20.463825296602298 15.79843699215669 18.78187031032304
Rb 16.53698772450262 13.689837719556868 20.76294750617642
Rb 15.795281091362314 18.284916731874233 19.484466195022396
Rb 18.803487118482785 17.400354086039926 22.95263319920282
