20
Energy = -7.32718444 eV
Rb 15.89194941021389 14.498083029467766 8.813231622600197
Rb 20.306686019746127 16.041455469381948 10.316187682596313
Rb 11.955861579306173 16.97922579104743 10.800283030306794
Rb 16.35018809249662 17.393032920077072 12.433813647442733
Rb 18.20833707236416 12.501290934769624 12.564212334842832
Rb 13.416820272464049 12.830310258034114 12.420650664677645
Rb 13.483151792748048 20.921438764775612 13.521960893089302
Rb 9.017075666809985 13.912857280482424 13.536531896992349
Rb 20.102593506223972 16.250641401371425 15.119664119495233
Rb 10.757828761365074 9.357239870944637 14.04557990990643
Rb 15.302535264944732 9.80852948946215 15.595987899126062
Rb 15.605443640825076 11.818091482307194 20.0334892063513
Rb 16.42124727245574 19.128166093650243 16.939118423005997
Rb 11.675491892634861 12.56277101374061 17.356528359539297
Rb 12.169349156220232 20.703365934674558 18.241986271416675
Rb 11.929576171452998 16.98908591569502 15.474615041121952
Rb 19.590288495615596 11.813008893213592 17.13464299703916
Rb 15.844552393246289 14.472522795887565 16.14725737781003
Rb 18.501181796842918 15.811178350943026 19.80628999069577
Rb 13.65369865801168 16.391561226062212 19.88182554793215
