21
Energy = -12.98701632 eV
Rb 18.103240286298583 15.747561277615215 10.064600282097711
Rb 14.020683236236072 13.50140164849401 11.346021318373806
Rb 18.298590192811684 11.383202081244322 12.100238989696795
Rb 14.847656657406594 18.43652398389268 12.408883045246998
Rb 21.893484911711198 14.752103505135853 13.229731142744173
Rb 19.395240285671722 19.251379349559862 13.590315911383279
Rb 17.506148090331056 15.211484205450889 14.648609071051663
Rb 10.607675684980176 12.158545917782854 14.49424383891048
Rb 10.406199391427585 16.523966138764067 12.465714993466188
Rb 16.012980387777883 22.560022531847622 14.839560948569101
Rb 11.987740432483978 19.990101054465875 15.905201912766156
Rb 13.385049297880123 15.629643123092436 15.936987772975074
Rb 15.183661243350393 11.218008724212723 15.782998802534534
Rb 8.97038425980285 16.03953591497042 17.291673307219657
Rb 19.718522911169917 11.95971394315403 17.012676429629742
Rb 16.582607229643752 19.16763960658523 17.703795288844734
Rb 20.737636655126888 16.783960179713095 17.68487310043385
Rb 12.340184156525666 12.694284676149632 19.307841136786067
Rb 16.78065222741119 14.98231602198721 19.676658295429746
Rb 12.803797112250377 17.581749811838492 20.18956433729117
Rb 16.583815772828906 10.592806727170226 20.48576049767565
