37
Energy = -27.64912702 eV
Rb 15.946747276889013 20.19437100613038 10.833139096870196
Rb 20.699042486245176 13.27921561389241 12.016687638970899
Rb 19.032103500924396 16.846345284688717 8.908873741977384
Rb 15.475004886948545 14.589050607878157 12.212786856653377
Rb 17.28883637628393 10.072702326817803 14.647333184980559
Rb 20.578849717240452 21.505174436370417 10.63458728124205
Rb 23.48199488597397 17.5954156913636 11.162302512146695
Rb 11.700932413559439 19.05957627682808 12.443119727474832
Rb 18.01009749907611 22.378767531795347 15.106928309623388
Rb 19.30585562943651 17.8561137236845 13.371475161078422
Rb 10.708864663708004 15.477739989341229 15.330318511324357
Rb 22.006335689399403 11.01566631320063 16.48578802947538
Rb 18.806954057157963 14.254954856269165 16.20793527101944
Rb 12.349228295901565 10.816986277220165 14.066685661668526
Rb 23.506708287371634 15.915297359358394 15.750007974989341
Rb 22.890814388613794 20.959874679771207 15.026766782867556
Rb 13.549164641558999 23.387319706468716 13.841217510707851
Rb 15.08227052977919 18.08375834103915 15.57878308382765
Rb 11.255958299280627 20.68118650190483 17.172986447318117
Rb 19.749236396431517 18.574377348467177 17.824282944126026
Rb 14.5221615412298 13.363213463795004 17.19113218669883
Rb 23.797335215586116 19.380462206990007 19.675280414641225
Rb 14.062984364742707 8.741129943169291 18.31365903007781
Rb 19.960777183020024 22.97677536617354 19.638797730027314
Rb 10.300632505822426 11.891612347896494 18.62057982540539
Rb 14.787107248047457 24.485898635623688 18.534413636246484
Rb 18.24487511482938 10.8089899170041 19.890754484691573
Rb 21.709599810438785 14.563811532504994 20.310706246147696
Rb 15.739493482128966 20.15585969696689 19.533684030053124
Rb 11.902814558478173 16.665600763298503 20.052798099309026
Rb 16.81319322765714 15.706519676576072 20.22449113862294
Rb 11.974782968904977 21.527498114586997 21.92352679449827
Rb 19.61751221880062 18.854420455073882 22.70500431442216
Rb 13.945970227956327 12.354047468059346 22.040526611564005
Rb 16.497272006562095 22.88036193512855 23.225795618361072
Rb 14.882136477828723 17.842214937777992 23.963754507848574
Rb 18.356616941854156 13.797954682552716 24.073354618711107
