35
Energy = -25.12871762 eV
Rb 17.835053351828883 18.823134740924115 23.124113173659072
Rb 22.3484739565632 15.807555358989154 21.94525429380265
Rb 10.604669472649544 17.793946538859945 19.198965424678395
Rb 9.729392065237565 14.889062312831832 15.228826264075051
Rb 17.892299417848303 14.567085663164532 20.528898080086837
Rb 19.746933439127 21.311118527160424 11.565951962476726
Rb 21.318120236711692 17.340793700137827 14.122486109764534
Rb 11.740742232562125 16.959075291186945 11.192624356529388
Rb 21.529097761293063 17.11419987710588 9.632966047136492
Rb 21.772397273902996 13.855781216582953 17.526403576805418
Rb 13.257774963995095 20.56036445642126 22.36334836425148
Rb 17.666224082187714 22.3696022841631 19.484728543472077
Rb 22.247944408846138 20.76059689329871 21.60530991451132
Rb 13.452625658238132 13.602576128263815 18.444161627744325
Rb 9.618107248705236 19.775104133601765 14.61293976942364
Rb 16.88365378018625 17.171402068493766 11.369808006529636
Rb 17.68988460545952 10.927915057377287 17.49085890719285
Rb 18.49941644538463 14.310625407461476 25.039330245571975
Rb 17.465230571350624 15.293861732969832 15.94241684308385
Rb 19.498988542092903 13.298995231498079 12.429239448681411
Rb 24.45549069696614 20.1057716796414 12.60101818596667
Rb 13.452772390599028 17.502333400912104 15.198515392210103
Rb 13.89971592401528 15.676387805768119 23.018680609800402
Rb 17.08282263804987 24.392638828066513 14.785898453709278
Rb 17.39634792483869 20.00042353037351 15.273086343575448
Rb 15.733124097820152 11.05201087400883 22.255682545202173
Rb 14.092230353711082 21.325029723701803 12.277355735548536
Rb 13.36791391999849 22.031628015994098 17.105401891076138
Rb 21.309204447155356 18.310038405843397 0.7001542368932421
Rb 20.04090191449493 18.245930705813016 18.647669755524163
Rb 20.553501347899143 11.13264767991666 21.672487530036967
Rb 15.334588073815931 18.18814159497639 19.24786725938909
Rb 14.256115972265759 13.225129657911054 13.346378514137726
Rb 21.65476440055836 21.990080970613253 16.131435563356614
Rb 24.514120855155518 18.229654977481488 17.602930550271175
