33
Energy = -22.65883822 eV
Rb 18.32748685990417 17.38612026942129 10.814045059310098
Rb 13.787405564049704 16.90377336333989 8.738423471958365
Rb 14.643360290319583 21.044859273128633 11.830394973747001
Rb 11.215372419138584 13.518045083105797 11.495612270678103
Rb 16.024312716075645 12.925637184108533 10.693054108882848
Rb 10.339698451656217 18.34001194302554 11.866185312089845
Rb 22.148947002965638 17.2410050881242 14.798173886504932
Rb 18.28269610979162 14.598043216113759 14.706657406253843
Rb 20.978289193520876 13.422950672736928 11.265916775033766
Rb 12.499977666986442 20.102603389976892 16.090442026160982
Rb 14.296365662213539 16.59293512182548 13.212401760557015
Rb 13.996833412687346 12.046228596950302 15.186393610254578
Rb 17.753707511477597 19.570084759326978 14.994830844598832
Rb 10.597040006819155 15.532454347654026 16.04143445426432
Rb 18.101557491774308 9.956510305665537 14.191685632293014
Rb 23.9591776189461 14.574598574356658 18.739035480594218
Rb 22.094957417871775 11.869205182922906 15.670472115207387
Rb 15.721737753097793 23.634910488762507 16.48422971798449
Rb 15.060981004938895 16.071268599937106 17.63514159197282
Rb 20.172074982033152 21.816588403051806 18.38723529727341
Rb 19.588107403843555 16.879631479378762 18.70398217635529
Rb 17.826440932193403 12.316892365470371 18.89949071515909
Rb 22.106688639017072 10.471820713470143 20.10278276646955
Rb 23.419486786109655 18.893737099054754 20.234537166936253
Rb 12.827681327262347 13.011847073183858 19.944746841238615
Rb 15.980738736488377 20.066090010860602 19.51960911841104
Rb 12.482333364875792 22.965476684455002 20.22919023868939
Rb 11.85856991152139 17.97254554837727 20.549962863930492
Rb 17.057366627475123 23.940967267566382 21.55196506990836
Rb 20.834708975150996 14.623350159537804 22.502478238862434
Rb 16.192328497883718 15.935271161579095 22.29568408005666
Rb 19.349660156652604 19.620857162025008 22.831766919758316
Rb 14.61420482227131 20.293974728519814 23.932333325619854
