36
Energy = -26.61061157 eV
Rb 19.512975750643445 22.216218335575057 13.712630015890712
Rb 19.744617837351782 21.80401321621732 18.379552790551205
Rb 18.73253596593987 14.022117156000869 16.48779014893221
Rb 12.3741439327364 21.245495689987866 13.764070882168314
Rb 11.64699981763815 17.458606034764887 16.84865906312347
Rb 19.2232805281705 12.415119784498152 21.238636343446505
Rb 23.53892040119915 19.084743360757564 20.199699533160448
Rb 17.35082961808483 10.383843297911374 13.690918096515443
Rb 16.611765915529716 18.565627760020217 15.410599918956116
Rb 14.237734365374052 13.676994564585074 15.171820458305815
Rb 16.043442913447382 19.74874585607892 10.850895188119475
Rb 14.369450000730147 12.221987056533989 22.576201587177295
Rb 9.834815216859008 13.55964830376114 14.199346129266091
Rb 19.48613392862267 17.15721487475884 19.779429618442116
Rb 15.743240549296614 23.394452704874393 16.281201283009015
Rb 23.04757776098139 14.20105308097335 18.85790675688486
Rb 15.362190414653064 15.071793112773642 19.288227246444702
Rb 17.057742589694808 16.153757773650693 23.654743402277756
Rb 13.37039350982406 12.019725335804129 11.071917950092242
Rb 15.44621199762164 19.646363942568218 20.21442946015666
Rb 16.152376350227975 24.055877851480957 20.891774714136147
Rb 12.5979366954989 16.809560024661184 12.004954830690568
Rb 19.506276813257863 20.388054144988814 23.01015573378664
Rb 20.90787107890864 10.034445989478602 17.145396535149406
Rb 19.381734227816214 22.524962734390613 9.060247085714149
Rb 11.943705190500308 16.571668582770712 21.744040100228812
Rb 12.394617333707451 9.343840404597312 15.112131592033858
Rb 15.953680813585056 10.218422717872965 18.325304387058697
Rb 20.638184218688238 18.348761000832642 11.271618506966508
Rb 21.68948425621224 18.129823622254474 15.774539467137455
Rb 11.844120809056523 21.98963063379421 18.554493480013416
Rb 11.36038262488984 12.48253418830662 18.71707502985768
Rb 21.884421239145023 13.703963627465495 13.517268041556191
Rb 21.96210296001381 15.804680685027604 23.481265288894495
Rb 17.253409185464665 15.119838880441618 11.925898599430697
Rb 15.655665655360673 0.0737985939529372 11.646133201155394
