34
Energy = -25.0205437 eV
Rb 16.54012073307016 15.953781207137508 9.885889836884255
Rb 20.149632201769585 12.626489850376576 11.085837298364309
Rb 15.362256410501084 11.818571613629544 12.311344951679438
Rb 15.524857821560182 24.647662140637234 14.14534857721252
Rb 12.853268478747076 21.066914855581505 11.585688570312513
Rb 20.95049532040681 17.64710799570439 11.42223526800263
Rb 20.299419503915892 23.10885745910634 14.055427719421647
Rb 13.252577728018862 16.44951040582333 13.446200154825451
Rb 18.948115758563922 10.755799403997788 15.765787472027009
Rb 17.959303018887248 15.182933517016695 14.06817113902973
Rb 22.49214876543266 14.297788265878205 15.201005459180049
Rb 17.017135162858505 19.91629306178502 12.988258047626667
Rb 18.841028265036538 0.21717990170590998 17.795939358681263
Rb 14.682884532390474 12.895113510620199 17.0528775543974
Rb 12.738326020064587 21.18799383009752 16.215406726772596
Rb 20.721397594640464 18.738416977022233 15.988932683751074
Rb 17.325604153929252 21.96827429167965 17.46029882318962
Rb 15.74467231777787 17.69052208595039 17.190072203531464
Rb 19.059643107782264 14.66709016324554 18.431019706926893
Rb 14.207921953138856 24.95417706935405 19.047731374032143
Rb 11.526196590402849 16.782874588056803 18.246943405697763
Rb 22.280516975384337 11.734869222766848 19.492298959172935
Rb 23.103605920149953 16.954543885620218 19.565077113979967
Rb 21.750217572040157 22.1271446066544 19.192310143388074
Rb 17.428908799865365 11.118635898684039 20.93459855194682
Rb 18.708143831936717 18.74483987532913 20.56081577555252
Rb 14.019116262423951 20.376405974777256 20.90451736745738
Rb 15.115833413820665 15.43454958769253 21.353778291113372
Rb 20.308368547498706 14.73748366951541 22.925026787611902
Rb 17.931911877288567 23.20111680896637 22.066034626557787
Rb 21.60212269291821 19.65591476413331 23.825923544571985
Rb 16.52817213102319 18.673878730962606 24.657091328343558
Rb 16.497426019869412 13.59719482519843 25.43201707702323
Rb 19.9136319486497 16.54884055601974 1.178864702460216
