32
Energy = -23.55112243 eV
Rb 14.250825403781972 17.632866603699465 8.847523940363164
Rb 16.33373437633772 13.172491537738575 9.718703727906496
Rb 19.282048828635368 17.317016611338452 10.073158380580727
Rb 11.735426550443941 14.150270367151728 11.294454991323033
Rb 16.27170894540858 20.920406663187336 12.009750828197436
Rb 11.376407205024949 18.709595740535836 12.994062566979805
Rb 21.218719356739484 21.426613748898973 12.371587774719803
Rb 15.439089172662747 16.312004065497764 13.134385978635704
Rb 19.78173329258159 13.485654502154985 13.273385361912934
Rb 23.55495850557519 17.016758985920276 13.47800598236944
Rb 14.998417943736591 11.63852774937005 14.344869506779494
Rb 19.21649172160336 18.17638903396761 14.848202752166216
Rb 11.865912370442697 15.298499534285476 16.597335276622736
Rb 21.71166098606259 14.942447871684664 17.72257363698914
Rb 14.524965569382267 19.86230713704234 16.51373039236254
Rb 18.424928227452572 22.636327926116873 16.724930684144798
Rb 22.71786129978185 20.2392451124884 17.39909248953468
Rb 14.360125814046214 12.108021920698386 20.039026701566616
Rb 16.8347366314408 14.886543262310292 17.189398320394982
Rb 20.197835684402516 22.1603058157697 21.754048901604616
Rb 1.2923981589268705 17.067127370278307 18.035087110160372
Rb 14.606418456829875 16.922932523263555 20.556703510580355
Rb 18.809656209793726 10.873164869171797 17.73777988565562
Rb 15.271471275427327 21.657509945171512 21.063999822818516
Rb 10.67409297069562 19.252519729970636 19.4115835550253
Rb 18.70698795886894 18.547778833934196 19.420541802993554
Rb 18.812541997345622 14.176631899076924 21.81663731378584
Rb 10.5430954092424 15.048494793910352 21.85809026087798
Rb 22.60186187623707 17.673995728521643 21.89503239646412
Rb 14.669707813435886 14.385196059522638 24.53835239550383
Rb 12.53737360811209 18.903050214797606 24.213350430472193
Rb 17.716403265054666 18.449464849980057 24.174774327962083
