30
Energy = -21.76283941 eV
Rb 15.453075303865456 17.214426354434654 8.592018728380243
Rb 18.437821707612496 20.777298927306564 10.225954431903746
Rb 13.614000416133381 20.90185789695498 11.184952544961911
Rb 20.090513223439277 16.08940020033919 10.463577711413667
Rb 11.978305168767648 16.27506328778418 12.077482317998044
Rb 15.898308606340795 13.179029985015267 11.599169551404978
Rb 20.340602619455133 11.56198893446115 12.40029715221945
Rb 16.467908049920695 17.679153396650918 13.2453111161646
Rb 20.991310175211233 19.41053323475931 14.339131996509169
Rb 23.593290702803028 15.382937269984765 13.809260462194683
Rb 16.992318205887997 22.36534395654247 14.929659779563892
Rb 19.278530304364846 14.694143260464674 15.51331884163331
Rb 12.910513719759317 19.7908228207567 15.955411384800227
Rb 12.029906465702968 11.630793003351531 14.069377219726073
Rb 16.473527430870387 10.856933646198236 15.986050203783517
Rb 14.131843614647089 15.040336902003771 16.471692146247033
Rb 22.180332218831442 17.137548409452194 18.74578262784481
Rb 17.444565283350336 18.41426174854241 17.710057133915548
Rb 15.55315376426434 22.046168743042518 20.090425027786836
Rb 20.407328924771676 22.011833471122138 18.989374793161385
Rb 17.98591599091186 13.891378941481118 19.9770236461942
Rb 13.381261316420522 17.654200539029095 20.46185623825712
Rb 22.902176534631792 19.91098423026337 22.698762658834816
Rb 13.456285001392013 12.69672164680166 20.65544587979664
Rb 21.277519428360602 15.322874813825896 23.549195297685202
Rb 18.94325050757375 22.717559695635885 23.723965139237126
Rb 14.631556312156658 19.75095159952209 24.738059189966098
Rb 18.285073811009802 18.40099024988891 22.18610464882434
Rb 16.28230117228017 14.567097564551169 24.37934655375298
Rb 11.731902877562757 15.77176412813161 24.376334434137117
