34
Energy = -25.15743934 eV
Rb 18.580810962526023 15.392189641731965 9.002649183650064
Rb 13.468470705926151 14.819458873392264 10.469563260561225
Rb 15.873558529153703 19.110307950747806 11.019597394629432
Rb 10.651588945493996 19.096106255871618 11.880338145531594
Rb 17.292834010767105 11.175423856544182 11.200353150335644
Rb 20.94106308453342 18.49721027211607 12.145156175787143
Rb 18.558873845273066 22.797851562801675 13.390197018998178
Rb 21.73113688716781 13.427151516309387 12.52246809308863
Rb 17.195322124379018 15.096227778948045 13.504322921588294
Rb 9.390070945648041 14.75963670165083 13.652148186218447
Rb 13.505978563153535 21.93954596127335 14.837920451122898
Rb 13.236033502688917 17.013385649611884 15.071780147429227
Rb 13.692732051436622 11.971554653964994 14.740416983455983
Rb 0.28734298347609055 16.74308042003485 15.144131554362938
Rb 17.239089626208667 19.247020423764305 15.745344103972892
Rb 18.670321380859086 11.331555856664178 16.183585278074922
Rb 21.95149330013418 20.55085693656936 16.709870394723666
Rb 9.543068230806727 18.985556067344806 17.04356580592974
Rb 20.3269334045358 15.8052784758874 16.63315747435219
Rb 10.634961939628694 14.134332758401873 18.280373045408677
Rb 23.41211106949703 12.662463030193804 17.67785858341686
Rb 15.21322550523394 10.627125647726562 19.33553341012746
Rb 17.68588359267163 23.071243333779073 18.515456107214053
Rb 15.416622768382439 15.144908855362948 18.70689649267213
Rb 23.34770069720591 17.066939247883514 20.230282179990077
Rb 18.532151281714363 18.442546746897822 20.078716039768313
Rb 13.758619801487637 20.092521008197355 19.48036442314777
Rb 21.48591582390792 21.6964409758463 21.65007553913883
Rb 10.658396872955409 17.502974516422054 21.824067537162133
Rb 19.426905704898957 13.554415154781584 20.941543392468652
Rb 12.6839403713958 13.213577467514707 22.555128568260365
Rb 16.818664339521085 21.579036341323054 23.219591931773305
Rb 15.384398614859736 16.95967798744927 23.520461575691183
Rb 20.212223317530977 17.689572599094067 24.284259976049164
