35
Energy = -26.03432486 eV
Rb 13.332226172106116 15.900898486924808 9.329701966235671
Rb 17.803007840363193 13.86531098332615 9.066283093707106
Rb 17.416236280589274 19.011603511919834 9.929954767054076
Rb 14.17250685146073 11.541809844916974 11.642958124180328
Rb 21.09697271167411 16.129356742628037 11.898811060043998
Rb 16.60699147567404 23.385092896691074 13.255749697600187
Rb 11.323860444351865 14.986922767614516 13.922794098910229
Rb 13.176826435193867 19.52938218133003 12.614306854870595
Rb 21.338752440130857 21.20003327772804 12.1943511795829
Rb 16.02609302281508 15.56227569416202 13.184013017558286
Rb 18.98542702305374 11.416122111798678 13.227804557023816
Rb 19.15770317468802 15.0613930067533 16.390763190806638
Rb 23.06050481383756 18.143292845872114 15.957405353297037
Rb 18.006972923452054 19.485101653174052 14.834500705270646
Rb 12.373838725356615 22.650231456351666 15.936260531868397
Rb 15.05467106586631 11.976233087408756 16.479683128710924
Rb 23.120210742629062 13.024706037593909 15.486128333849882
Rb 21.110415039385288 22.690875919719147 17.052252715588093
Rb 11.166173097860014 13.648546113457078 18.53645075695884
Rb 14.290161223549367 17.93401243026873 17.468652725194154
Rb 9.819563166294888 18.337974861172572 17.274505055256117
Rb 19.412198199331197 10.912901557928489 18.624988478729513
Rb 16.312831938233156 22.75440299188246 18.544967855513065
Rb 19.13283158476398 18.844301778768703 19.30990604032953
Rb 22.248958007369954 14.87967712751499 20.15309895696455
Rb 23.50555845642478 19.76514092259502 20.616281494489876
Rb 16.634713260721817 15.081854072434158 20.37864010640076
Rb 11.919330728346809 21.443458818527233 20.548694262659456
Rb 19.779064870962 22.51178344190462 22.07861006986621
Rb 11.973021813171288 16.721832775812988 21.956817308798925
Rb 14.444377140382553 11.370510759897863 21.502758319941243
Rb 15.739067228161984 19.71204684915401 22.824494546224738
Rb 19.995689200238328 17.33644281075756 23.771660279686483
Rb 19.20610157807396 12.344124111130485 23.307322338582733
Rb 15.487456975849996 15.07066172324434 0.13575131368877574
