39
Energy = -28.9710548 eV
Rb 16.783947080214514 22.53182335216762 10.788706138097144
Rb 16.46336262334202 16.93132608242515 9.20418667484169
Rb 12.447267501090485 14.620842868545362 11.896900017062174
Rb 16.5791909374237 11.901390212023701 10.252313548059284
Rb 20.93683222799804 14.621712751232687 11.074346802750183
Rb 14.340708052355659 19.125860855569897 12.958858044504598
Rb 24.024312147751896 18.409822897617993 13.686338779552463
Rb 19.542087614737266 11.149786308830635 14.507504767941898
Rb 9.783148477583808 13.22198356701234 16.12801715538449
Rb 17.22010947596608 22.865392833181094 15.631082926942803
Rb 19.37341261329447 19.046121934476478 12.435606841612314
Rb 21.376916800779846 23.071125530023554 13.022652311625574
Rb 12.356997926879357 23.158781258110864 14.662392629125572
Rb 16.901261948489143 15.036966500859721 13.352436358904075
Rb 20.859516465545575 15.795984831694096 15.726286832713674
Rb 13.473195136488089 15.650810789575631 16.345029410090813
Rb 0.020575844310575676 13.475904541724985 14.778064770452186
Rb 9.954009873036364 18.34462410891706 15.111418972088648
Rb 14.416717510829923 11.084466310295594 14.95107652747001
Rb 17.41260422479086 18.329177942391198 16.60788489175864
Rb 21.504454110114725 20.590711241549833 17.310083146534645
Rb 17.31612950618144 13.611786084254426 17.8168926261249
Rb 13.635453220072689 20.05064373857154 17.78492065213196
Rb 17.345781997856413 9.305654659573689 18.844938509396474
Rb 0.010909577902230277 16.672183703154484 18.875154088127566
Rb 9.822371156313453 21.84095496457948 18.847062212675517
Rb 21.57755647336137 12.31017585412149 19.240571456052024
Rb 14.036846705919189 24.262836258905867 19.336384849112783
Rb 10.602426627930933 16.669382610802376 19.96060385539324
Rb 13.233800447139956 12.333002560939153 19.900812844576443
Rb 19.87873948101433 16.75474460957194 20.166138495711554
Rb 17.732534355514062 21.134269005322036 20.501094473339013
Rb 15.325510370823968 16.695377109195558 20.542251059201238
Rb 22.260770440009424 19.81811208038244 22.344853500318273
Rb 17.74374481915469 12.978319157726071 22.51529319109793
Rb 13.225961793268374 20.23083765228134 22.572796042836146
Rb 22.358223952617774 14.991634597866923 23.47483859745819
Rb 13.257051655094454 15.254496815601055 24.19160943382306
Rb 17.86485815919007 17.75178927869682 24.283414024884042
