30
Energy = -21.96907235 eV
Rb 15.17449719187861 20.201451130306154 9.617040817718584
Rb 17.604918359994397 15.825254618209977 9.590953161053436
Rb 12.755962140071556 15.80057842887384 10.370093646283802
Rb 19.45933361281675 20.017872706935073 11.915954466940365
Rb 20.003621058374407 11.807523654286372 11.458857951456189
Rb 15.198089788216615 18.007067748088833 13.668148647648193
Rb 15.383241258724215 12.791730718082755 13.132472061759385
Rb 19.358412407924455 15.733820615266051 14.122851062689412
Rb 22.518984884368724 16.092240607926815 10.719931262416928
Rb 11.802685752606436 15.273463689125496 15.99124253577523
Rb 19.12386564260082 19.919467722014627 16.799463945018076
Rb 23.31382878180274 18.143142678504613 15.279585355383025
Rb 15.756197502427975 22.682161809836106 14.89302303253697
Rb 19.123437242004066 11.365820521575534 16.352698554356657
Rb 23.47254995148002 13.235214523958733 14.670338321443715
Rb 16.385374039109188 15.258317524596142 17.420843496187715
Rb 14.20276712299047 11.287426023116272 17.98399016017477
Rb 13.890871645696814 19.345076295470705 17.901964638446497
Rb 21.184350734225898 15.369079043714772 18.863418133625686
Rb 9.777950994768453 18.858887516270094 20.03140941697728
Rb 12.186440894511264 23.33022920149044 19.466391202922246
Rb 12.901004068827277 15.308680985586642 21.07279540891402
Rb 16.922193611181076 22.634980186177973 20.236324436584805
Rb 17.25698889634547 17.889165332625616 20.92600573952078
Rb 17.48526314262317 13.01281963116101 21.58347719847674
Rb 21.577308171990115 19.897490104940907 20.923476358662352
Rb 13.470395557796227 20.075251588056386 23.0515847137279
Rb 20.56409449440015 16.141923977942877 24.005927344137756
Rb 15.753183386421158 16.090493042156023 0.6121492410062173
Rb 18.2382068904582 20.44938760034055 0.2233473497553762
