39
Energy = -23.52599016 eV
Rb 17.17348884589291 18.48573534941267 8.895568942632389
Rb 17.970328234146795 13.61288494981572 9.031888295262021
Rb 13.212354277644666 15.606398870634068 10.738722456036104
Rb 21.8397640696391 16.570974740080914 10.719975548325658
Rb 14.478355260917452 20.05638184001748 12.902936166760023
Rb 19.70097600768933 20.52125080612704 12.87198272763734
Rb 17.512458099583313 16.070571098924987 12.632405744690345
Rb 10.002720141422799 18.267979368093204 14.607033631960377
Rb 15.376885707291223 11.675745331266384 13.19864060648814
Rb 20.603487635971664 12.283760636919476 13.189693439397944
Rb 24.55072043437836 19.480557490793018 14.211223507397671
Rb 10.408756549700266 12.916635807748806 14.447223097069667
Rb 16.613917141229734 23.08315579426463 16.553294276867668
Rb 13.74651582076755 15.663550681015884 15.312201581404604
Rb 21.363566603573876 16.60666463710232 15.441962384229345
Rb 0.2922385096239393 14.546669914728664 14.24785599553812
Rb 17.413932961619718 18.503211399680914 16.38339551953969
Rb 11.551732135302744 23.16342144524554 15.691074880975961
Rb 17.86542051676553 13.75450626560912 16.689707532226688
Rb 13.27565262710702 19.595626586699815 17.733650042249796
Rb 21.263583336468574 21.01384474650034 17.803205218081725
Rb 18.400244144240546 9.416527024041061 16.77287771970786
Rb 13.679942330859038 11.674664489662295 18.01251724030794
Rb 9.384126400269247 20.695027841986718 19.41307215835351
Rb 22.220010154952025 12.644265568623432 18.249951899799093
Rb 10.63105515729479 15.612924799868493 18.945873266658765
Rb 24.471718602329936 17.189573213946417 18.943772263733234
Rb 20.001309282297477 16.557597450262328 19.871876108703283
Rb 15.303300902631829 15.902419215099894 19.789960315978018
Rb 13.649257870096918 23.391525953102306 20.550210990665406
Rb 18.934632912001423 24.210924878626923 20.99291745851442
Rb 17.13368212222167 20.163259158648632 20.540275353422672
Rb 18.21062802260995 12.331010802266363 21.328384979068773
Rb 12.870014708259223 18.773553588258462 22.570578304301574
Rb 21.269381442047603 19.87783495751273 22.801642221326915
Rb 22.287161373606693 14.619187515251788 23.112451241964667
Rb 13.302387817587942 13.720582322760919 22.99883915276051
Rb 17.48971342105039 16.640864219528563 23.955741679551966
Rb 16.493851052055266 21.797079717884227 24.543766528421777
