36
Energy = -26.42470703 eV
Rb 19.64628092139411 16.101404045237064 8.494398636861755
Rb 15.620270376566268 13.606709935051674 10.131640969696527
Rb 20.58529775500627 20.705862072522052 10.757728055768633
Rb 17.82350409907611 17.228876871241432 12.248222485204574
Rb 22.82295650602005 16.76725187921085 12.77496901094453
Rb 19.823512035483546 12.64938434288256 12.419774151873273
Rb 15.985402534587429 21.690425987558328 13.351136708023471
Rb 13.025347897971779 17.115153020018084 12.952441488730218
Rb 15.870794816690537 9.61914805040102 13.269586963767248
Rb 19.195687614665786 24.775488343136214 15.537193704479861
Rb 20.659627696182024 20.156367076071433 15.368927735036513
Rb 15.552251230462813 13.595706488707371 14.906499304021162
Rb 23.625504622668597 12.827622701457788 16.090687208857926
Rb 19.97959057483372 15.345160061130702 16.09959406644095
Rb 16.078954885633276 17.87769089818961 16.304213706364436
Rb 14.233517619538745 25.106902782246028 16.602247460184714
Rb 12.21459883930211 20.472304885647056 16.926089548863487
Rb 19.116833672202578 10.814731447841316 17.237004368026195
Rb 12.17307408184916 15.502799701706241 17.788283234227702
Rb 16.882462204074322 21.80742159926191 18.193602864249094
Rb 23.78682663778155 17.351299381999873 17.936648717142727
Rb 14.206340384769634 10.736965561643334 18.729031112691338
Rb 16.818464586291668 14.326008004986226 19.459712691978126
Rb 19.465411618301136 18.18419854833862 19.721246964863482
Rb 21.369622028051076 22.474344650863667 19.74118060276502
Rb 17.548455642698013 0.4724035187163356 20.168054397948943
Rb 14.809637995331387 18.349697994767993 20.622442565106432
Rb 10.333613045180089 18.788645534504465 21.15253790176538
Rb 21.39453253034234 13.80831367106336 20.575935986266284
Rb 13.307116158961906 22.814686500513876 21.16134610839871
Rb 13.393316435830146 14.119480522725814 22.577127446592716
Rb 17.553801902778982 11.245095663148147 22.61287561335499
Rb 17.86604941898105 21.21777094498575 23.025043664819773
Rb 22.215182088410984 18.83344275001467 23.073486869833296
Rb 18.002647435149537 16.003495848861462 23.843720319945756
Rb 13.618331711404126 18.915079548930184 24.750186969378838
