30
Energy = -21.82666002 eV
Rb 16.540996934332846 19.068963689264937 8.864342896840073
Rb 18.616377238730085 14.463907515277084 9.26157583000947
Rb 21.04198903342601 18.41704840204968 10.719287433878526
Rb 13.75168677668564 14.998882977684923 10.088838035750797
Rb 17.791277504886185 21.66116859439482 13.053605754237097
Rb 16.991718316872635 16.908883674672257 12.981837185078762
Rb 21.198291861473095 14.266671982383468 13.47396847658791
Rb 13.004450570715656 19.601530062110786 12.509683443392056
Rb 9.551581446448564 16.071079580526188 12.129024398477481
Rb 16.412640159609793 12.069568212409282 13.26174074816405
Rb 20.810332622477063 18.793615374600762 15.730207421831269
Rb 11.665610704749934 11.662116169437441 13.23575835945248
Rb 12.744714461838731 15.538688396162788 15.51828480554428
Rb 14.548861376569306 23.64065269239108 16.408881907214006
Rb 15.433896643803937 19.33724242252797 16.840551713773298
Rb 19.030122112645472 22.497368142231135 18.517562364228834
Rb 19.6365288581025 11.011702236994106 17.170338759123972
Rb 17.641240644422126 15.020771260329633 16.996027913801615
Rb 14.504286676679527 11.708421178444375 18.190049106537742
Rb 15.026070555120857 21.010440436332924 21.502154467871026
Rb 13.775410672239508 16.256002734133464 20.158118890432455
Rb 23.1314815857026 19.807632847905353 20.08249909751527
Rb 18.607935402192314 18.015432565035997 20.198811983456263
Rb 22.380347718992233 15.050705474519821 18.815437823639844
Rb 21.730162525334975 16.595700172945133 23.46112062176397
Rb 18.199067600259543 13.347615645666707 21.578445143861735
Rb 19.775769456485637 21.274691366336874 23.367136391897432
Rb 13.929859970096182 13.306722150059564 23.722432218542185
Rb 12.226156914506614 17.99694197208236 24.246153175569592
Rb 16.936322602585935 17.235021019074413 24.55131257951134
