30
Energy = -21.77122628 eV
Rb 15.51926849004485 14.42735932237665 11.165297894280659
Rb 16.765206718639142 19.60773822478987 11.470328640734586
Rb 20.141950898642907 16.039705395307127 12.282850750905764
Rb 21.49443006521144 20.7828544238601 11.565282587611962
Rb 17.734785274752273 11.527125632579502 14.786303429732035
Rb 13.434251335268083 22.94658629491982 12.439437243383944
Rb 12.510127190626763 17.917885819530877 13.091497706425496
Rb 23.87151971957208 18.072136918556858 14.877126225179504
Rb 18.082708350909833 23.6630961913526 13.880880544303066
Rb 16.315321035960142 16.171584467506353 15.15450229539496
Rb 12.934221151488435 12.733890090871485 15.299392407636347
Rb 19.535088987841487 19.4098060038944 15.500544446320795
Rb 20.511573340606684 14.8304738687887 17.064464248830642
Rb 22.567506326354483 22.628668203304198 16.05442130353523
Rb 14.864833774339635 20.576643435898475 16.117685710025178
Rb 22.014734285437953 18.653218631712193 19.5293116909175
Rb 14.908645642447528 9.127238866491354 18.00182151414112
Rb 12.558833991182407 16.749482168293753 18.042927276408676
Rb 14.467832954002244 0.0771130149489098 16.944772824283852
Rb 23.38766413175004 13.593268722485716 20.471928751835247
Rb 16.09292464069419 13.44767596055941 18.784767828407972
Rb 11.71041556223199 12.376396609526862 20.144946898169135
Rb 19.65535254555394 10.466678825320447 19.350077102811028
Rb 18.321048718432202 22.666701991191452 18.685489925608017
Rb 17.324508173629383 18.081575470741853 19.567803413790667
Rb 10.148400599291755 16.71453587967931 22.02418417695741
Rb 13.64520063728937 20.65027372951323 20.73426837543721
Rb 15.870603997347349 10.96973740184755 22.54089479399803
Rb 14.557057256068346 15.79564746986555 22.595718924003194
Rb 19.285823862879028 14.65051383583301 22.06291072742726
