31
Energy = -22.67328888 eV
Rb 16.558071393368184 15.002745716017557 8.936915600580539
Rb 18.98368250971617 19.23644898997824 9.298295780264814
Rb 12.943318899933914 14.78504634468974 12.323696844969422
Rb 21.047489727855645 14.995705807663397 10.978936988951897
Rb 17.581040259081206 12.134245059924183 13.028717116206305
Rb 20.68681784122525 14.757264505000306 15.810321099994841
Rb 17.229156488649824 16.967710281609264 12.797691663835472
Rb 13.993996111112006 19.082569635601153 10.102454953992163
Rb 16.870736453731546 21.709809232780582 13.185406075440149
Rb 10.917887926387463 15.059418764100585 16.656725785801008
Rb 17.97854942104145 11.3586889216421 17.911082922021844
Rb 21.393895478790384 19.20558738607977 13.862162673687893
Rb 15.417219344566668 14.971345077796268 16.400974303038122
Rb 13.53355020431618 11.022656758644626 15.447069037727799
Rb 17.786049705958767 18.872268542026546 16.785485049577925
Rb 18.512242831379947 21.063935142368727 0.026901014179301522
Rb 18.186387671901095 24.495648913194927 21.86486535018947
Rb 14.20208487455716 21.66409927306461 23.025773853071968
Rb 22.368013631710422 21.722831617282615 22.24493979297698
Rb 15.704900418959594 17.019974023328533 23.99667072141984
Rb 21.06041347857405 17.159405999703623 23.598273037969964
Rb 18.121598482876948 20.050576584404006 21.07083106074926
Rb 15.23358694617615 22.54827750448497 18.114993592574674
Rb 20.445604396060965 22.585637987419375 17.746953585641894
Rb 13.60898253970884 18.202726993798876 19.697197272133398
Rb 18.404940241194687 12.99630306137643 23.617551350769748
Rb 22.385811366299194 18.281774483289023 18.850346380305904
Rb 18.26099447108139 15.665632567375871 20.01813350859675
Rb 14.172995291403609 13.53050875349614 20.82334464840033
Rb 13.09449724974874 19.14386853771167 14.86128474522898
Rb 22.263978680795617 13.655781872309154 20.57698004156165
