43
Energy = -31.19752458 eV
Rb 17.17117772854057 21.434559379209045 12.35303201743626
Rb 16.707575876783185 17.61280017528796 9.180984889837367
Rb 20.700049779473257 14.502658519006149 9.603303058756715
Rb 21.35964404362878 19.398944159816025 10.457387542645897
Rb 11.610572939195688 16.214324594466888 10.536347932423858
Rb 11.900954705703798 21.208940200538784 11.931560393221746
Rb 16.01820786017674 13.127324730996918 11.353046717787032
Rb 19.92422471270786 24.182970314897247 15.22833236986007
Rb 17.681221070088366 19.513159919214164 16.773936762579236
Rb 19.0956630202984 16.68094909758401 13.374139120380152
Rb 23.69313412479881 15.502347739181277 13.769394696270027
Rb 14.558875733030831 17.441925954806855 13.58000569073034
Rb 14.88907449971318 24.94406928838391 15.108023094094339
Rb 20.226554040913765 11.8031528791849 13.970640729284346
Rb 9.711087753917342 17.878763289726383 15.022395661426213
Rb 11.882263891586303 13.181149022987466 14.814922769489298
Rb 9.635611921603353 23.33196031147895 15.614535225275658
Rb 22.241085844029808 19.969777426983885 15.405530899202612
Rb 15.682974626664642 9.651147764832368 15.086271449957087
Rb 13.49970382160626 20.917517983427423 16.534370694404235
Rb 16.474021444007796 14.026688142261804 16.11267598150852
Rb 20.709918623031125 15.3823243650978 17.594277874535475
Rb 13.2719811148592 16.6455288502462 18.093821366661157
Rb 18.89749641748417 10.936686156554542 18.949261169137273
Rb 24.082891789202453 12.433331153653981 18.371388965018475
Rb 13.669554908483512 11.712612979724074 19.46724206419517
Rb 9.368606126066556 14.480772963644814 19.229128055494947
Rb 24.553266778436107 17.670930459134283 19.14171407768429
Rb 17.374067856690285 23.684650434715866 19.270499950543595
Rb 16.93279296456676 15.533296357891881 20.40589515713748
Rb 10.032514237579006 19.64344717105724 19.827540154335562
Rb 12.409445348855062 24.179999430979404 19.63759846888596
Rb 19.947119110910663 19.107396258583922 20.420537471932924
Rb 22.416883752457963 22.84893131969934 19.504044301679585
Rb 22.425518077904446 10.507485250322409 22.48182806967689
Rb 14.927429648692772 20.061961047337387 21.35920048594893
Rb 21.126191850568805 14.940269889064176 22.530446284037136
Rb 12.850367408604134 15.455963447534103 22.80538930833805
Rb 0.4886314718709735 14.283775368039413 22.659967867978192
Rb 17.21469401252101 11.994142855644492 23.44904789662006
Rb 23.401706605006254 19.132241414111565 23.630307348631554
Rb 19.373771258487533 22.225182003748525 23.69488192601923
Rb 17.606371079268825 17.598202925887332 24.649407035883673
