40
Energy = -29.79206982 eV
Rb 16.26013914032934 19.421624043571722 10.067414391845952
Rb 20.17085545344913 21.894470571669356 9.213662573655991
Rb 16.305238602186602 24.32810179267042 10.830931186193581
Rb 12.626630996242573 16.88650765592346 12.609997033965822
Rb 17.07983477080968 14.1815071405068 12.0699163025517
Rb 13.253191368490855 21.879261689050182 13.757062451880774
Rb 20.980828091714127 17.692957146789816 12.39091074843968
Rb 19.341432501768175 22.505894330020883 13.910295172776307
Rb 21.889585001150447 12.560537772234301 13.293793763899604
Rb 20.44114784675924 24.066693602239273 18.41752258226808
Rb 16.62466812705308 18.41243711700277 14.464203704862612
Rb 15.947271299848719 25.72030422234504 15.776703416797687
Rb 14.171748228451237 13.945294315155524 16.228238934147583
Rb 24.19109949158103 20.99703338083993 14.83518652837034
Rb 18.217625461033776 10.494418579962492 15.81458481759084
Rb 11.951846306133636 18.53403404627049 17.336605350281225
Rb 19.235239476922654 14.914452589286432 16.30873684337826
Rb 22.23343963625812 11.938465947055471 18.731101508523082
Rb 24.148506621061955 15.837572686005492 16.112665242924923
Rb 20.669186859693077 19.323142295020617 17.084301354114768
Rb 16.135593094282285 21.531537794873543 17.654872540895067
Rb 23.790372343717177 20.587637549372065 20.564710731290017
Rb 12.094566885704387 23.596829075031437 18.54704578708207
Rb 16.161254829757013 17.110579935387776 18.99154989423896
Rb 21.041170179414564 16.282276516495422 20.37584354322941
Rb 25.43449048469225 15.758982885003107 21.195767815949925
Rb 17.407708957922377 12.507527004176463 20.453033727706426
Rb 0.5908074941201682 18.77498111380546 17.858156798584023
Rb 18.788213596389575 20.50286576647038 21.264284833028658
Rb 20.99690053816133 23.588352817601297 23.745822420800526
Rb 16.34007912502428 24.692996412427775 21.28420289945408
Rb 12.85915637458423 15.262433389892914 21.785621056681503
Rb 13.73275875042292 20.279726804591782 22.087558802100975
Rb 20.8265893081539 13.580058626944238 24.122612086024233
Rb 21.85246587237144 18.59270558347929 24.712456007109626
Rb 17.321625459428073 16.769878407449863 23.37534681380746
Rb 15.724032627551138 13.001853531080389 25.40476701263904
Rb 17.262082700765205 21.011708319306546 25.82963785185028
Rb 13.666751803703717 17.477494328871597 26.275828036427427
Rb 18.220743623912664 16.29893466363326 1.2039267636492306
