45
Energy = -33.59816865 eV
Rb 13.572648110951802 10.847468674299627 20.170198603332615
Rb 0.354814491218295 12.079645417623095 20.34754505237518
Rb 17.985771629237103 12.128259951905939 21.39734255609241
Rb 15.627185282951869 24.535037626922545 17.289365705702412
Rb 9.136404600010861 21.100753193407588 13.637213679759212
Rb 21.55641827079122 10.485716602249372 18.375046153933607
Rb 22.37201866178999 11.049072885116306 23.119298625391536
Rb 16.405966937209758 18.925048745184675 23.489115687266143
Rb 22.037114673667066 19.025292716485517 22.55664261566611
Rb 14.75036835606713 23.38715951405823 22.179049715294088
Rb 18.779794404482786 0.5034153240466969 20.901099894058156
Rb 20.24393913433061 16.127048392184854 15.491294524777246
Rb 11.59364275750886 18.59242881808972 22.069424451722043
Rb 0.23264810851343995 17.08454742848789 19.517303241603134
Rb 18.341444637111053 17.064509644843298 19.65957568114411
Rb 20.583855896989476 24.2619970976281 16.582947048613107
Rb 10.981321142663115 22.832431663002144 17.91819563922559
Rb 17.192230908663266 12.558426125740906 16.864645924654244
Rb 21.150366265000407 16.15034405185166 10.945304402398351
Rb 22.932924955551034 23.455872214403378 21.046620011333513
Rb 18.729402228442453 21.71556972699119 20.2321511846961
Rb 20.70101706927983 11.913082615459656 13.543207108924426
Rb 20.03385767517301 20.0904433525565 8.514740109144999
Rb 14.429508702248098 14.362247394084582 23.84871792998168
Rb 21.330725118820414 20.857560692190084 12.924699048611501
Rb 17.195446330680372 23.637087911850845 12.595644909452004
Rb 16.316430180055413 13.955737100962988 12.198274079020013
Rb 12.327222012612006 13.256666320337212 15.777414215764303
Rb 14.572144163953746 20.03838873290592 18.969957297021768
Rb 14.208241660004937 15.375289549965213 19.603934280409366
Rb 19.358269354922133 22.895897242549616 24.519988923009773
Rb 18.05231009249879 20.39636314534332 15.918110006753906
Rb 10.709585403799453 17.886631359724486 17.01649196156248
Rb 19.673704988910654 15.33578501493152 24.336973279355874
Rb 22.068809561863066 14.69989570998214 20.060791331838843
Rb 16.905432651155223 18.668461725648957 11.541366983127737
Rb 24.690496125754922 17.779376594278283 14.156252189441608
Rb 10.015358356853277 14.101987850804422 20.402478695936065
Rb 12.252810971566067 25.298034357226 13.824513771111528
Rb 13.595958867016147 21.028884317834446 14.324231904292693
Rb 24.880569844699334 15.162011648630136 23.836991458782805
Rb 22.375323130383734 19.74185306782845 17.807882258774615
Rb 15.39352477734571 16.79460520316208 15.567148361731421
Rb 12.014943144507656 17.028048706863405 12.335355731991324
Rb 24.44841196667187 13.57816251638202 16.0601660530435
