45
Energy = -33.65967709 eV
Rb 17.465277751002578 12.114224225243374 22.526224836635926
Rb 11.713139892938752 13.042682923363678 16.342099480784864
Rb 20.380865684139597 19.018396526649518 19.994412237760738
Rb 16.5718385138959 16.62915616292212 21.296750037824953
Rb 14.357962519659639 21.069244876105223 15.544497928865253
Rb 14.5988415316079 16.389589027515996 9.485587257665616
Rb 15.684961073709497 14.72641480477113 13.591856457023201
Rb 17.271924362240387 19.48760807892739 12.315735046929259
Rb 12.033187083733157 22.89827655266699 19.343402524762585
Rb 0.9117995149965376 17.505841616718385 15.652455074308264
Rb 17.217216730334133 17.57516972481896 16.66479958010217
Rb 15.920011321415009 13.341420606684512 18.026444371739807
Rb 22.80564408136963 11.883237942750629 21.59742103437724
Rb 23.95899896635292 12.948660405646637 16.926608281111793
Rb 16.903447214534232 11.684902556979287 10.323955921173448
Rb 11.882771218025377 17.162354866039 13.349804135962312
Rb 19.404453548917495 21.789720598765218 16.0816188285674
Rb 20.07413402176044 24.20437385238786 0.06022418720081776
Rb 18.071144034186617 20.13631614148787 24.284915890037926
Rb 15.812513372295133 24.37713108195132 22.857671764882586
Rb 12.16794435841473 25.18327586016542 14.893896133242846
Rb 21.585314489234488 17.034053179402896 15.697527708238566
Rb 12.817229664176693 13.887088368681239 21.72443465425211
Rb 12.292733425268562 12.593412261672707 11.2421710035863
Rb 16.070440496975497 25.230301105860896 17.882565749089164
Rb 19.64204985913232 15.795279614939082 11.010980735638569
Rb 20.158671701132995 14.41521287013171 19.12573033601779
Rb 12.700156307885651 17.558765879040536 18.31399162368491
Rb 16.459119680952174 24.25910355137442 12.871837182734472
Rb 24.373543233459667 16.570448479148677 20.24395321179044
Rb 15.825464945386585 15.661179869572683 0.29351891997710666
Rb 24.030816074523248 14.874508091600802 12.391527435605695
Rb 13.99307997574864 9.598533674255213 19.504854791928228
Rb 20.047613400788705 23.69131719074468 20.672743907118836
Rb 9.810531029618819 21.095741069081964 15.127543909265075
Rb 16.212854498449186 20.99382102123694 19.780716510105375
Rb 20.706147876380655 15.916422991955727 23.748559661638858
Rb 22.694379575241577 19.92736326521752 12.612265802853267
Rb 19.267520300832263 9.897523566652277 18.43840614667036
Rb 19.76117162583727 12.572021047606507 14.485363912065289
Rb 23.913780585407803 21.042459456914997 17.856574428028715
Rb 15.450362088542139 10.059726102404651 14.615427839889366
Rb 12.730234661055718 21.380181927903834 11.22032053650994
Rb 22.874986850313313 20.66084311312318 23.477364616557796
Rb 13.207057532750294 19.286300155417642 22.99830542853914
