40
Energy = -23.68683943 eV
Rb 20.45352665170954 19.8005560319038 11.038036072377443
Rb 17.8812705488195 15.578293180023266 11.694827689905951
Rb 15.175368711007748 19.875562354405975 12.508492255164496
Rb 26.802405025407296 19.40053360632282 12.935004605530516
Rb 22.773667806192837 16.075844482571586 13.568953784947224
Rb 18.58892917365201 22.997002674797773 14.305543640342043
Rb 13.200302534227392 23.84903985664241 15.285254390383331
Rb 18.79758676304685 18.29860269554961 14.994570125317933
Rb 22.98489828178733 20.864590459079675 15.09550266281266
Rb 14.530228231068053 15.928673817987974 15.652780407727901
Rb 10.146376273069041 15.093107110029772 18.486784844443132
Rb 27.412275361430897 22.025539389703958 17.12642120431421
Rb 18.83016078819878 13.638179599123362 16.455279248788056
Rb 15.366138144523537 20.55226090709909 17.199482245963505
Rb 26.379334331478628 17.399461011285688 17.19054521194369
Rb 14.860095704290515 13.337975352558896 19.83998389960091
Rb 23.86172924393864 13.097276212961205 17.968403686844674
Rb 21.861896498077968 17.001702209565746 18.166425927247662
Rb 22.69855290125709 24.670886009863693 18.20493094870246
Rb 19.697998847435375 21.211666384381395 18.64373597101809
Rb 16.6884911969801 24.75374926180582 18.853963467425885
Rb 13.182751841045521 17.900006208296382 20.3458233842205
Rb 12.13092896666816 22.589371848103415 20.114053333399983
Rb 11.288179202897343 15.196396257087079 23.40240132106218
Rb 8.76076016244262 18.660000303459665 21.269137728813558
Rb 20.172937158751065 13.815768312997271 21.417901706917004
Rb 20.96375443031694 23.29077137506606 22.797325591652168
Rb 0.6399160841906788 19.88897895653779 21.294843022453776
Rb 17.448071780710915 17.03356553971565 19.369321598185522
Rb 24.025807910313453 20.520258520874695 20.08619663874879
Rb 10.912100777035207 19.451449813062432 16.435207333156566
Rb 25.96520556130441 24.030371259540903 21.96194244807514
Rb 24.6043332900845 16.104920481925642 22.04666652190164
Rb 20.43803487321652 18.569643832259878 22.514602523837294
Rb 16.415667983503038 21.187600860208757 22.222559894505302
Rb 16.292674485966803 16.4829267668304 24.113456677616355
Rb 12.407768546131091 19.78830848933653 24.47695193776614
Rb 18.59542610525373 20.194637989417483 26.357184000979835
Rb 24.091771836806274 20.20515334118884 24.93479038285321
Rb 21.36194948546115 15.999288956359825 25.984633382986058
