46
Energy = -34.54141002 eV
Rb 19.42866954560857 22.966532086671183 9.02995151252058
Rb 16.10192070047246 16.080138238781387 11.319598102553055
Rb 14.880022487241462 24.25253687720307 10.16072359083505
Rb 20.720253706436388 18.13536235417592 10.608565861379562
Rb 12.66363537436538 19.90375278066701 11.707449109466218
Rb 21.921946972150383 22.3889720003073 13.04928151899703
Rb 17.209825221789792 20.764431478765292 12.27179959583331
Rb 18.04714857173816 25.311296026155457 13.65682792989739
Rb 20.58935471828314 13.665839744584273 12.921800706315745
Rb 25.261717710062634 15.02770931556934 12.747808652404647
Rb 12.32878967778359 15.805221279051173 14.559613173942202
Rb 23.84903376444828 12.58373787321054 16.5702330079771
Rb 15.804830866869029 12.25263446109362 14.825093797880852
Rb 13.542021937022596 23.686019810669862 14.695802052969979
Rb 19.526750154805452 12.731149393135613 17.786829909118783
Rb 22.4962300177979 17.797206766723406 14.84796506399293
Rb 9.9997623908189 20.066349069214137 15.76632527366008
Rb 14.535121196793318 19.48713471273609 16.083693209054008
Rb 20.98787294327281 25.15682354051132 17.566234616799573
Rb 19.144015671556005 20.99977168016321 16.419910500016652
Rb 17.98899478758254 16.628293989018154 15.308543930439264
Rb 10.914405161649174 16.720447350489927 19.358375360812342
Rb 23.825322135587257 21.174600639582636 17.819806604365862
Rb 11.641307335847547 12.04080899549753 17.79606998298907
Rb 25.538173537068985 16.640549712928312 18.226449565671185
Rb 13.822065044389113 17.746482779971874 23.298316696816947
Rb 15.05569186011085 14.974045725747999 18.52953379388612
Rb 20.792551763771666 17.219542090274434 19.161878593180887
Rb 20.12747170851693 21.673911493179524 20.895405167789423
Rb 16.672012264580985 18.916841838209844 20.039847492959698
Rb 23.745834061897718 24.20549692187584 21.682512165032414
Rb 12.967929876494654 13.126294403848306 22.545233757093147
Rb 17.79110183571185 14.154717513835424 22.101450761945785
Rb 16.384620196358174 23.99640706881475 18.63727373666665
Rb 23.72336251359023 19.103814407409317 22.38142238899061
Rb 15.803661587208065 10.352584726087054 19.75390977507706
Rb 19.080900169723662 25.95254351894084 22.30194353125808
Rb 12.55508317636853 21.348785251298168 19.867974992628394
Rb 22.873063129065237 13.975606393011219 21.53374547592112
Rb 20.27467074327869 10.002525159122673 21.93035432429778
Rb 16.421715239677145 10.342021356280604 24.646131525799447
Rb 19.238023418565987 17.998645568493302 24.20171893334831
Rb 15.99506576110421 14.718776166164517 0.38457813693967297
Rb 20.843419449865504 22.48288474334165 25.32912059422628
Rb 16.22916394683865 22.14711592423882 23.56567258184503
Rb 20.379199008436547 13.017370115553492 25.738160412637686
