47
Energy = -35.3549592 eV
Rb 15.324039468463805 19.215344134413744 16.45977201715187
Rb 23.883600300558594 19.502775740881788 16.467681179219596
Rb 21.275453670322875 12.75851665283188 17.771474825583216
Rb 20.686698052356533 19.44075036498019 9.636639325424058
Rb 12.124540566248852 20.08667744417525 12.91263241473973
Rb 18.76817590861792 14.4491797084749 9.567377525376699
Rb 19.50721326358828 20.8553277449126 14.362036044212866
Rb 21.17703589883303 16.59908738293481 13.359329248787331
Rb 23.378976753678913 16.85301410816689 24.670258235735364
Rb 18.48115887414232 10.748668211511108 21.53689691823921
Rb 21.459473123358904 11.664926615263452 12.892379496576709
Rb 18.53283318404557 26.15380976663745 25.504036233574503
Rb 16.386425498494496 18.132403264117084 11.721716926705335
Rb 18.71441910973223 17.922181312021326 25.86044644740057
Rb 12.261998324290925 17.011458952024107 20.682717880667226
Rb 16.61712196515298 18.342712851125704 21.061343441938384
Rb 13.59491525294767 11.027785972546221 15.00301503234524
Rb 17.3684966042076 14.274736624955796 14.542232088301063
Rb 20.980410469283903 25.22913665200666 21.44049005506416
Rb 13.296760889309647 22.066324457120082 20.909335219579138
Rb 20.71434158413346 24.47868728307529 11.85040798269249
Rb 13.682338753180202 23.943366933323624 16.455746130312217
Rb 16.98779905818772 10.208622466724195 11.636067755439763
Rb 17.954811406004403 9.67090241586418 16.411661122521167
Rb 15.965420596497015 23.053715152079867 12.226019585638804
Rb 13.975411563539511 19.343084516440943 25.15240638406028
Rb 15.733331851719365 13.720521626926269 18.912265208243355
Rb 24.494137803034587 16.02256810234411 19.82147844121586
Rb 19.96054856778868 15.373886922158098 21.73560094190971
Rb 24.96236561769727 14.58182523326615 15.06035135343555
Rb 13.993071519741912 14.008850955246576 11.025136119551338
Rb 12.502643635517325 15.749706078418708 15.38242677852421
Rb 16.209787042518972 26.201687627956662 20.82571118947508
Rb 18.090235788062568 22.30734094095755 18.62431735669931
Rb 15.507153464457243 14.53629163306113 23.8441952351436
Rb 23.589814948637034 15.059910405926166 9.816688056428754
Rb 19.95591215995248 13.03072747287576 25.712632528123855
Rb 19.761644514597325 17.32785987245903 17.666432324202475
Rb 21.642743329732323 21.995027124774552 25.83363016747937
Rb 13.968461037054112 24.504708996977314 25.072488410604294
Rb 10.51580201581158 20.208679274594655 17.35792406630059
Rb 17.70670533629599 22.087398759421212 23.298385956879333
Rb 17.968651679046143 26.045217542368967 15.744351462843778
Rb 22.23470568823685 24.114580986116316 16.82852001786881
Rb 23.312462967488514 12.052096021304731 22.329711851706513
Rb 17.07683056315087 22.0732563480754 1.4683817833363824
Rb 21.965687934330084 20.21722895020964 21.210171879718665
