49
Energy = -37.16269202 eV
Rb 24.026831113971834 16.355535040242923 11.348997394534011
Rb 20.345033880084202 19.49546255572126 10.004250897728237
Rb 19.525723758148203 13.997322759704034 11.111351680408696
Rb 15.92788008533839 17.674552960474884 11.276954294140625
Rb 15.067164124222044 12.902064047930168 13.07272885750303
Rb 16.508252778488362 22.96046851522879 10.381299895826217
Rb 23.937791094675692 21.12060084484453 12.997551285894227
Rb 22.914223834106995 12.762830817055447 14.676447770730068
Rb 20.570177026536392 24.912857399842753 12.611791844821838
Rb 15.32187517057965 9.488753658892058 17.13793224947188
Rb 11.525557607641273 16.170005439641038 13.945612879228051
Rb 13.113773727180424 20.97625932037968 13.888453190710635
Rb 20.479681998073204 17.30290589202983 14.289175847592661
Rb 18.285107543353202 21.222837207588956 14.213298640863817
Rb 15.71178747866277 17.44195801590811 16.030466513031353
Rb 24.731505880858546 17.106271543061204 16.351528974089533
Rb 10.939422378825093 11.176467617185152 15.028347388441407
Rb 15.7138700430812 25.221607787670177 14.936251548321257
Rb 24.270151585398015 25.3176647456621 15.803713026483562
Rb 18.96588927517424 9.69219005343418 13.658941510728718
Rb 8.91747761858433 19.554375465798696 16.05549629109173
Rb 19.826195359683002 25.59852737530932 17.633601603423458
Rb 18.550218437614 13.625671737407746 16.17660183258367
Rb 0.4193286616619307 21.477885866722026 17.32431264205812
Rb 8.956423953842929 14.673710632922669 18.092887813310814
Rb 11.704529042708558 23.280672143215433 18.055505252876856
Rb 13.661120974314873 13.89384255454148 17.958332490636703
Rb 16.08900868049521 21.437336840366747 18.212600917426087
Rb 24.162102380940503 18.75477215200796 20.93731073887902
Rb 10.969167716209581 10.160915981827596 19.668930300994756
Rb 15.64214244017995 25.86181358356436 19.894947366360203
Rb 20.03442494583144 9.701847643652679 18.575025040118888
Rb 23.788704094313488 23.839390337935683 20.747928975163077
Rb 11.894149028693464 18.494346684521545 19.531215042418413
Rb 17.515385661728292 13.552962439953308 20.536945607937394
Rb 19.872854051542106 17.620871973164018 18.996683921212355
Rb 16.034734163134747 17.78099448238958 21.45444047423584
Rb 22.597518728081422 13.785574044894148 19.722794644537153
Rb 21.798209274033738 21.3280177277374 17.25725928486341
Rb 15.14308073693697 9.970106436832161 22.226736142102293
Rb 19.1332362197973 22.09953392417203 21.619386330087067
Rb 12.05641623276147 14.005442902537945 22.378709775804992
Rb 14.023352149786389 22.10595015653665 22.574167630138877
Rb 19.86505118836666 11.123619959647838 23.609104806236335
Rb 22.301188925820295 20.792145314460274 24.83845291088913
Rb 20.615527339735177 16.325264551298012 23.649178861832798
Rb 12.765596661500227 18.008900465451056 24.895795045292548
Rb 16.18110592552659 14.326344059149132 25.09399725267089
Rb 17.46911974582567 19.61509286161979 25.611101836402803
