41
Energy = -30.6159095 eV
Rb 15.989453709524604 16.40788479494802 9.105586195210364
Rb 19.50061883403054 19.42720658701953 11.22696013266031
Rb 14.494276304530386 20.950425690029466 10.5799496605601
Rb 20.21790969443264 14.813304037885391 12.468933401658338
Rb 16.213017876519434 12.616960001816064 12.128338043546458
Rb 11.52465180360255 16.983407848518024 11.555043412440122
Rb 24.296529114522425 12.388282059170372 14.587193350698028
Rb 23.9003939886409 17.377849994101183 14.389138233590401
Rb 12.252730478677204 13.11046865506525 14.41980798847146
Rb 15.496549821752787 17.394975402604203 13.474108626486345
Rb 14.22233854200925 0.42111536042571457 13.797063800145626
Rb 19.511610268342015 18.246125814271213 15.661049404056092
Rb 17.17449097343923 22.124224942187904 14.410613611784584
Rb 19.878187521795272 10.780535064778102 15.263558005927353
Rb 22.071035517404905 22.149302515981958 15.190249411326295
Rb 12.266800492019923 21.064086300490846 14.957420933481613
Rb 21.376076760852083 14.558412951141825 17.422481695800798
Rb 0.861831379198322 14.83227071978787 18.446212849394133
Rb 11.439755706904496 16.681279146148178 17.000984793439404
Rb 15.529145095357531 9.851893504424567 16.4268467390045
Rb 18.923128924047653 0.8422661492952218 16.968770262979298
Rb 16.518130290392794 14.410113913638195 16.750118661459922
Rb 22.957615741781748 10.80368759763289 19.210153113562722
Rb 15.382215030446403 19.15430883783649 17.731031550220486
Rb 14.733635313122935 23.71404543985393 18.514829654105952
Rb 12.70075006973383 12.214627448846814 19.316965289403225
Rb 23.275201588135435 18.982047351163214 18.94129475872795
Rb 19.102401651663516 21.615467643116414 18.841923220924656
Rb 22.84740250033757 23.884247854829734 19.833190428902295
Rb 11.702344832108258 19.97001924819203 20.46885357556019
Rb 18.879547995953565 17.16824949957362 20.17086332029169
Rb 10.093102710755243 15.344727968781225 21.771668128944555
Rb 14.548469323583303 16.03834838455204 20.910366065769953
Rb 18.053873616212677 12.299741381297299 20.677212508808342
Rb 18.460449882113156 24.851609958099996 21.901086879322577
Rb 16.063867655388194 20.523419532626644 22.474235352861285
Rb 22.382954688794737 15.003840965739801 22.135159648071177
Rb 20.932666342205042 20.24150085740842 23.057172954733243
Rb 13.947986736612233 12.786376302033968 24.015345802962234
Rb 13.014086761225734 17.57319647054694 24.926356522247133
Rb 17.839418462437088 15.976912173078176 24.44640364273437
