49
Energy = -33.5859604 eV
Rb 15.257140237740414 16.38589025397274 9.296922173645747
Rb 18.66259112055076 19.852738056807933 10.25082922938441
Rb 19.668259282202783 14.888061137087885 10.663427017016923
Rb 22.135986748194483 23.182684373937875 11.391668866186581
Rb 14.055044334689155 20.60452505265508 11.636642065196071
Rb 23.129221908051406 18.376594920387603 11.834754261888358
Rb 17.519155257513184 23.97347150393054 12.688783210982638
Rb 15.572190835945397 12.603680810704452 12.2616669747791
Rb 24.04736035223535 13.536534224031632 12.140577570077447
Rb 11.995616723924568 15.892286172945752 12.989150760969247
Rb 16.6624906181916 17.156453323737725 13.72348334720626
Rb 20.105164129778224 11.086121106084816 13.734171209540166
Rb 20.069991593732947 20.63048000156466 14.818071405388597
Rb 24.890178135897237 21.623943117147427 15.1498835285742
Rb 21.117790700435055 15.601175521986896 15.205280593568506
Rb 10.549353147591304 19.953175819904605 14.77140717178927
Rb 21.434090575623575 25.174651656261673 15.695941108622467
Rb 25.67685010237612 16.68653214752672 15.470474414309365
Rb 15.190492687804571 21.448448119010465 16.358983640908885
Rb 16.05221223422494 8.914238902213341 15.445533553803918
Rb 12.442198395285232 12.143789364321504 16.047471007467408
Rb 9.281350157418228 15.855243717177302 17.37642714976957
Rb 17.135988538027703 26.00854424954167 16.94626037724598
Rb 17.05733942539392 13.252554144053613 16.8466050894922
Rb 22.850670906276473 19.017043710348 18.68914625180052
Rb 13.595230912776854 16.75329090174323 17.65681214715869
Rb 19.19004669666629 22.264611768212493 19.32650423239146
Rb 18.249577484691702 17.761595858428205 18.109549154664005
Rb 23.818184599293772 11.95705084611992 16.6680586559467
Rb 19.841901005195115 9.611492712442146 18.44770959386281
Rb 11.163292523288527 20.87484918703227 19.45507262679063
Rb 16.253385068760934 14.900268510198558 21.3971284792652
Rb 15.199209489422966 10.079688292568875 20.048952274624817
Rb 20.913138590102403 14.215678605669718 20.04313059647899
Rb 23.893232707390894 23.778665496399437 19.310697222246215
Rb 14.773076583886308 24.408259792710343 20.68048354708807
Rb 11.682915690587063 12.963282531131433 20.523249151467006
Rb 19.873296625162308 26.265432576512698 20.982006738260583
Rb 15.349893272359303 19.783292983047687 21.00597074551012
Rb 19.731222510073952 18.397840941832502 22.561592791789025
Rb 11.781798843422985 17.0885528391231 22.499106825648877
Rb 18.979275325875996 14.772784214194758 25.59512967549215
Rb 18.69917663370315 10.870922473291726 22.94387291332602
Rb 14.313535534427903 12.698707932621984 24.666106030322872
Rb 12.603940329196542 21.696727756341843 24.11087994622394
Rb 17.479836566940737 22.612973137481184 24.200185926298758
Rb 22.057451439136944 22.47314049713834 23.4956339206892
Rb 15.595776510079178 17.9453786631114 25.40435054403382
Rb 19.956051676620923 19.52982484347204 0.712627067547234
