40
Energy = -29.79905929 eV
Rb 17.560287017015142 19.047651962734296 9.297881152554279
Rb 20.766964580125556 16.635707350243383 11.958096977556364
Rb 21.327022435035463 21.704182551939187 11.996035027243382
Rb 16.151878907685102 15.215064011074082 11.923832679217297
Rb 13.467323527232223 19.61926219668843 12.264054593031798
Rb 16.942023777083897 23.355245670534707 11.951125361949357
Rb 23.926022102559827 14.206880650953492 15.92887665151116
Rb 17.55436584715182 19.163644406001175 14.085092263166075
Rb 24.408269208094065 18.71271499986878 14.01790403554726
Rb 11.95251979085649 15.267169326853717 13.979551688470668
Rb 15.88994155092905 15.399506574653968 16.88184464452582
Rb 19.95620280458347 25.504719672529507 15.376765307262348
Rb 19.365110043982398 12.700166723627325 14.399022589787993
Rb 12.546144305299626 18.97646244588165 17.029096374672545
Rb 20.53297004582469 16.75330030129499 16.875352126080298
Rb 15.178444059328445 11.03196440671032 16.209440997999238
Rb 15.57470087811586 23.192940833662583 16.38108238871942
Rb 24.748431793416668 23.32404662060602 15.346052279575469
Rb 20.853256850835034 21.357710681592327 16.60276821865842
Rb 25.22075285676509 19.025303719357986 18.407756626463367
Rb 11.644207970135062 14.060899855479645 18.427566573961563
Rb 16.94332960431889 19.56693623627442 18.715051240446122
Rb 23.336626072505478 23.59189884064705 20.025875927917
Rb 19.847820601759317 11.889206639295244 18.807671229326125
Rb 18.502854743381494 23.827839010286326 20.364190976686054
Rb 13.768101244444132 22.114994472485865 21.055418870780642
Rb 21.15329980427246 19.648829615580585 20.846685433345016
Rb 23.159180186920622 15.243469833604573 20.956643530808968
Rb 13.700456166792653 17.16444232946702 21.423903482230223
Rb 18.333274714040652 15.90300156205569 21.09733557775154
Rb 15.398416512786092 12.471837695765066 21.040635522907124
Rb 24.945730226293367 19.78764329807084 23.200995643741066
Rb 17.294510647216782 19.903880840969375 23.360694584088755
Rb 16.35291171378451 23.9884273500839 25.03292810888637
Rb 21.065147043143064 22.510767603858575 24.573867571993148
Rb 19.67670091582611 12.49756101768444 23.663717188512358
Rb 20.942835809889598 17.359479231223936 25.161067157577868
Rb 13.360579736184047 19.971613168394374 25.562772503702096
Rb 16.186652071269535 15.774370362068387 25.338113783133892
Rb 17.93188789475358 19.996411991534092 0.9385345530308006
