51
Energy = -38.67510173 eV
Rb 16.4422604796343 16.17665636592767 8.827419849091815
Rb 17.068861115622557 20.680748104796912 10.713213343400957
Rb 20.920654660589307 17.61328270538173 10.440525231233334
Rb 12.906308954038323 18.11428375002836 11.76203252938873
Rb 19.428448162982303 13.06772619149402 11.029637789572185
Rb 14.010455903647008 13.38854776459143 12.05664151725308
Rb 21.440251710862665 22.05411793945436 12.44512792224231
Rb 25.270172683230328 19.026910573945578 12.401122374906256
Rb 13.48693096519453 22.613962150749707 13.689932993415509
Rb 17.20040437668168 16.69370203493969 13.396025906104354
Rb 9.546382518301531 20.03232166801485 14.881819753150154
Rb 23.687651061542226 14.393441143337366 12.922008929553355
Rb 10.66290003995954 15.189085669657505 15.13477434405301
Rb 21.975744692672215 9.933056795321496 13.702402024772532
Rb 17.086515784793242 10.222162942241592 13.957127774972603
Rb 17.738262615088992 21.246436258769787 15.351512956880788
Rb 21.606086132959504 18.124118578547055 15.128889675548765
Rb 13.70367242397644 18.648675416065498 16.430165674011445
Rb 19.959025607594494 13.47151463792423 15.966226663189188
Rb 14.857824225418552 13.72362812756326 16.734887712131684
Rb 24.569219555224947 21.802159161113277 16.3690791847033
Rb 15.672598088112132 25.206470923594992 17.26285216414059
Rb 11.725315315540321 22.59773832176478 18.455599302599605
Rb 26.00307449406429 17.041706922750098 16.743015276270864
Rb 20.911428557690993 20.772444413048735 19.30493466664888
Rb 17.910555335329423 17.275474454184618 18.02054046336567
Rb 18.01814897882371 1.5054728367594423 19.861793433555306
Rb 24.415795363305033 12.401027839019644 17.347902037745023
Rb 23.74532881333308 24.242628268702195 20.60696809617448
Rb 14.212399807401873 16.702475443015107 20.90953087771561
Rb 26.37449317780488 14.800805442548924 21.130537968467294
Rb 25.20711000097351 19.553768066361116 20.900674551762066
Rb 16.049425531574734 21.21912064523031 20.10930158273418
Rb 20.587717825565694 25.02327948106674 17.010462681885954
Rb 17.952318833076003 13.37863964758171 20.725987861657156
Rb 22.17207012143353 16.049111243251232 19.625128079579934
Rb 11.137013153254408 13.397396548751042 19.77281251893443
Rb 9.89120248362599 18.12554434750913 19.32817375393947
Rb 14.425606361608821 25.23914127756655 22.01731278610576
Rb 14.224164698911656 12.977616320827227 23.90142447465651
Rb 19.135799897121117 24.529570585952357 21.921024338829334
Rb 18.66821517652421 17.97137756850393 22.69824106506035
Rb 22.399294019266385 12.31848780886737 22.4616184137047
Rb 21.81885338212557 21.316366047242003 24.063206829521416
Rb 22.98586225559922 16.594663465606757 24.338374704895315
Rb 10.557145446619959 16.157486867987508 23.724397319593507
Rb 12.346039652751081 20.67339431232755 23.003482050539976
Rb 18.751217379973102 14.007212383978048 25.43728831247208
Rb 16.660574401118183 21.87404936694556 24.992365939574967
Rb 19.44471844081199 18.570576570192536 0.42879902381488
Rb 14.943857126675987 17.34274863173406 25.638009307216166
