51
Energy = -34.8219864 eV
Rb 20.82934858141374 19.80325686802917 8.868090634394587
Rb 17.35370833226112 16.50145828142018 10.067866036818833
Rb 16.576994451324524 21.321803274518903 10.694820966680421
Rb 13.974775372280401 13.075655206392781 11.453685718433311
Rb 13.028771203762648 17.90140036406155 12.00426552765148
Rb 22.140571824986434 15.502522906325247 11.064559768999374
Rb 20.871404748017163 23.51287090262124 11.990208152534377
Rb 18.74756351764 12.107529636899393 12.336309021783741
Rb 16.610360130473932 24.804757341322684 14.142888213299178
Rb 24.301191132099706 19.901190688995552 12.405027217298686
Rb 19.75802500196152 18.908149348603427 13.353250912193907
Rb 11.549156660864243 14.516358078812386 15.450602088951287
Rb 16.310694900711958 15.482475973431182 14.697407134765406
Rb 23.351403488694377 11.289077323114395 13.416299515404155
Rb 15.498893387251973 20.306688580007997 15.338015182772502
Rb 10.64053747386122 19.300559107596317 16.209402335839894
Rb 15.059993018969607 10.941058579278401 15.795449374085784
Rb 20.810529077458582 0.25837292520499644 15.63552705001657
Rb 12.352634565742765 22.622031438339537 12.855340602806402
Rb 21.035782461845685 14.614825806813435 15.712199430507596
Rb 25.456232002608186 15.461534955054699 14.660074038859605
Rb 24.333974714635076 23.523594870501785 15.489086483919285
Rb 22.314882899220486 24.56647021312539 19.964185800888654
Rb 19.838357549691445 10.015608519404566 16.87319092092594
Rb 23.310267534081913 19.068257969801977 17.040980926868123
Rb 19.784878072513163 22.39134080168456 16.717333424474845
Rb 18.719261332582846 17.914266467676477 17.95606231653145
Rb 17.486695665698175 13.42072632003028 19.13074591074001
Rb 12.969363157020192 23.51247347857679 17.655528388265616
Rb 14.047089388811104 16.972048966121474 18.848576962081598
Rb 12.680941252088378 12.340976556764161 19.67134306854169
Rb 16.064365633336568 9.064033993418693 20.397810001063075
Rb 21.893736718972576 15.411299083389402 20.440564746004675
Rb 17.304191751988636 25.701515675945473 19.04402011282524
Rb 9.576767668886484 15.864837641752274 19.824769697047017
Rb 23.008168497971806 22.947088056258785 24.51385674690315
Rb 20.691574910854577 10.925374689470086 21.639396285705345
Rb 16.21753796291459 21.185505142539 20.157489168949894
Rb 21.01910667551816 20.207822436799994 21.336523572930815
Rb 24.086728239235615 11.88658233730791 18.193611085236718
Rb 11.511585256697696 20.28244325201651 21.122526908257104
Rb 17.488465469196573 16.97730382647302 22.461971215453378
Rb 16.62316698219058 12.30660524681522 23.863567973182704
Rb 12.299284799151032 10.881762935081957 23.915016077676167
Rb 12.894299779846575 15.682653314205838 23.382994449583745
Rb 13.83927994267799 24.447557953994803 22.416361417858475
Rb 18.515863679202514 23.688018337746826 23.462410157500944
Rb 20.581842699114738 14.664407790178316 25.045316867976705
Rb 14.937132916407679 20.24660570876926 24.72628098221667
Rb 19.688844514198472 19.485528079398772 25.89459014964765
Rb 16.2465802305464 15.989151955445774 0.3680384641850611
