55
Energy = -43.16454832 eV
Rb 2.6124165959691656 7.284160443413684 14.834317146716947
Rb 6.671470188731217 2.507493287760797 8.424766513739693
Rb 3.9034618500825946 6.655131656405324 9.905166276684785
Rb 6.740511441166887 3.920851856319749 13.512244874802331
Rb 2.521878540789141 11.099680276048806 11.849389840363981
Rb 11.037853630235277 2.5394969208490075 16.06297803452537
Rb 6.844565277427321 6.6969571567299155 5.226685198266266
Rb 11.050232858799848 2.295504569190157 11.011626575605959
Rb 8.509119468255328 7.118868723905672 17.821159743961676
Rb 6.9119854812757096 8.851849497542851 13.271742050900468
Rb 5.549218345766506 11.0843733260741 17.28327023832554
Rb 8.705969125916798 6.573319794294933 9.630033690053216
Rb 11.079991815898522 3.7157783106415465 6.10079323861643
Rb 2.6043235134517126 14.907102244619846 14.82979069629655
Rb 6.625177510133437 11.086448865221803 8.303257124433408
Rb 11.06405839999735 6.591367598878041 13.707013039217847
Rb 3.9185997240154897 15.559601750091806 9.896627983605395
Rb 6.890213243566365 13.32555567572568 13.262107678679488
Rb 11.079112167006038 7.021911430420192 1.8383845239760588
Rb 15.452967899917905 2.439217177345294 8.467069497429149
Rb 8.305347446891357 11.077452406460303 2.865686814162699
Rb 15.349036427592663 3.8456062879928576 13.514667889665349
Rb 13.625204768844913 7.07738063394587 17.826571328002945
Rb 11.061837663178004 11.081491059238402 20.557968660642786
Rb 11.095000546282929 8.821747330024142 6.29458217445277
Rb 13.432055384453626 6.524063127361463 9.64132222956653
Rb 11.056073120495938 11.080319984677761 15.76150975864543
Rb 6.827089037789591 15.471868223132372 5.241881503138442
Rb 8.511102219735744 15.072422546188452 17.81204868836858
Rb 11.06884315834995 11.069190967524783 10.860487314234454
Rb 6.736686444661856 18.263536605977638 13.518190170181866
Rb 8.721452501411578 15.572516380214466 9.620272750997142
Rb 15.347362436185364 6.6726955030657 5.281228771144909
Rb 15.204105409599913 8.832758505859713 13.275251549052415
Rb 11.087840259376668 13.295902664218922 6.2813794144918225
Rb 6.7151079309311825 19.69163692538731 8.471344670476679
Rb 11.061014562643269 15.564436732250662 13.703032706546997
Rb 13.852893139429753 11.053253703242957 2.837816942056702
Rb 18.24586430320171 6.6337206826500985 9.931087491262769
Rb 16.579762403045887 11.068715777644034 17.308186779588176
Rb 19.360713152117555 7.084069099547995 14.910226301569573
Rb 15.547465297178757 11.033462738150881 8.345664158228288
Rb 11.082833153080065 15.11366466426396 1.8375863121451215
Rb 13.630103017451995 15.073440581317607 17.808246128605965
Rb 15.22306786384756 13.30049031798722 13.27686036130026
Rb 11.065446260901812 19.675866338652103 15.994464883731938
Rb 13.444096727747533 15.557826962073937 9.629973985815672
Rb 15.399149155902524 15.352105413096192 5.285497286752197
Rb 11.089371455018155 18.37723176865983 6.069755661844247
Rb 15.376429651670685 18.25263486760967 13.501773660974878
Rb 19.700818410870564 11.038935482114194 12.104105196782292
Rb 19.41179551708376 15.005798464978984 14.892376225741582
Rb 11.080124171320206 19.81634697992066 10.958935176908296
Rb 15.44988450848153 19.632328478856824 8.4244372148687
Rb 18.26380541482339 15.42232123423346 9.899065871851889
