55
Energy = -43.02463881 eV
Rb 11.312624606196255 11.312624606196255 11.312624606196255
Rb 11.312624606196255 13.79237972320897 15.456318715961775
Rb 11.312624606196255 13.79237972320897 7.168930496430901
Rb 11.312624606196255 8.832866155103886 15.456318715961775
Rb 11.312624606196255 8.832866155103886 7.168930496430901
Rb 13.79237972320897 15.456318715961775 11.312624606196255
Rb 8.832866155103886 15.456318715961775 11.312624606196255
Rb 13.79237972320897 7.168930496430901 11.312624606196255
Rb 8.832866155103886 7.168930496430901 11.312624606196255
Rb 15.456318715961775 11.312624606196255 13.79237972320897
Rb 15.456318715961775 11.312624606196255 8.832866155103886
Rb 7.168930496430901 11.312624606196255 13.79237972320897
Rb 7.168930496430901 11.312624606196255 8.832866155103886
Rb 3.06457328082599 11.312624606196255 6.452623636884292
Rb 11.312624606196255 16.172625575508217 19.560675931566685
Rb 11.312624606196255 16.172625575508217 3.06457328082599
Rb 11.312624606196255 6.452623636884292 19.560675931566685
Rb 11.312624606196255 6.452623636884292 3.06457328082599
Rb 16.172625575508217 19.560675931566685 11.312624606196255
Rb 6.452623636884292 19.560675931566685 11.312624606196255
Rb 16.172625575508217 3.06457328082599 11.312624606196255
Rb 6.452623636884292 3.06457328082599 11.312624606196255
Rb 19.560675931566685 11.312624606196255 16.172625575508217
Rb 19.560675931566685 11.312624606196255 6.452623636884292
Rb 3.06457328082599 11.312624606196255 16.172625575508217
Rb 11.312624606196255 20.05096202882491 11.312624606196255
Rb 11.312624606196255 2.5742871835677614 11.312624606196255
Rb 2.5742871835677614 11.312624606196255 11.312624606196255
Rb 20.05096202882491 11.312624606196255 11.312624606196255
Rb 11.312624606196255 11.312624606196255 2.5742871835677614
Rb 11.312624606196255 11.312624606196255 20.05096202882491
Rb 13.884205919629741 4.617259190306418 15.506881917203378
Rb 8.741039958683125 4.617259190306418 15.506881917203378
Rb 13.884205919629741 4.617259190306418 7.118367295188975
Rb 8.741039958683125 4.617259190306418 7.118367295188975
Rb 18.0079866880066 7.118367295188975 8.741039958683125
Rb 18.0079866880066 7.118367295188975 13.884205919629741
Rb 4.617259190306418 7.118367295188975 8.741039958683125
Rb 4.617259190306418 7.118367295188975 13.884205919629741
Rb 13.884205919629741 18.0079866880066 7.118367295188975
Rb 13.884205919629741 18.0079866880066 15.506881917203378
Rb 8.741039958683125 18.0079866880066 7.118367295188975
Rb 8.741039958683125 18.0079866880066 15.506881917203378
Rb 7.118367295188975 13.884205919629741 4.617259190306418
Rb 15.506881917203378 13.884205919629741 4.617259190306418
Rb 7.118367295188975 8.741039958683125 4.617259190306418
Rb 15.506881917203378 8.741039958683125 4.617259190306418
Rb 4.617259190306418 15.506881917203378 13.884205919629741
Rb 4.617259190306421 15.506881917203378 8.741039958683125
Rb 7.118367295188975 8.741039958683125 18.0079866880066
Rb 15.506881917203378 8.741039958683125 18.0079866880066
Rb 15.506881917203378 13.884205919629741 18.0079866880066
Rb 7.118367295188975 13.884205919629741 18.0079866880066
Rb 18.0079866880066 15.506881917203378 8.741039958683125
Rb 18.0079866880066 15.506881917203378 13.884205919629741
