51
Energy = -34.85003879 eV
Rb 14.679800483071986 25.754674039269457 20.14618957813223
Rb 25.73250588725669 19.80392777509946 21.774012967093253
Rb 22.35656388834531 23.15197208403768 23.076610403888154
Rb 21.344110895568495 24.408388241312394 14.689034900519527
Rb 17.872595784723913 23.298932312923807 11.422796659274566
Rb 19.732648474270114 25.948853388558298 19.17012515905898
Rb 19.514927588607975 16.046452447689582 26.30179492025939
Rb 24.54688566368874 23.153277189956977 18.251549541096455
Rb 8.819839159139374 17.805750059708327 20.630613747153408
Rb 23.200037894645618 19.856995910956773 14.873357165201769
Rb 17.781518139747416 13.49660792391148 12.34533373502226
Rb 13.052008767271676 15.79302021207583 12.450216599996041
Rb 23.59667377133697 19.28992651149383 26.24932224509809
Rb 13.402620284269078 16.945576773675818 20.399224886711828
Rb 17.792909401399758 18.123267623500062 11.282021925172772
Rb 0.4719374732435007 19.53441588261025 16.77119403779839
Rb 14.038867985158454 22.214072060635274 25.704043451672167
Rb 14.961739897650235 14.422703332945641 24.550546077151136
Rb 26.441722698138484 18.826722582272982 11.72090016442536
Rb 15.248728115068205 18.016836696559988 0.9059436294422593
Rb 16.21770648864292 18.765115326708738 23.41217445895067
Rb 14.256552785665125 20.81555891276303 13.558713789195133
Rb 18.97852823836067 21.0529659869924 26.628694273615622
Rb 20.36916926485426 21.418793353426967 18.979929554918698
Rb 20.467678270404104 16.011769994257634 15.298976892712398
Rb 10.697714302900204 13.680199012547817 22.285097568756093
Rb 22.151563986631853 21.214841529635923 10.691692123879886
Rb 10.930947102966805 14.350356705076425 17.377830137840355
Rb 14.291449606156965 11.727097853155428 15.021391234543017
Rb 23.85578955169943 15.258332342610199 23.224961867569235
Rb 20.816625013232095 18.787103929381033 22.778887522416827
Rb 25.901482520197472 23.230360142866104 13.44630190291722
Rb 16.538179390187608 24.966105018996853 15.73575995951749
Rb 18.259385816644006 17.023376215712407 19.373220221557954
Rb 18.535949839490108 12.193301883924274 17.135027368125964
Rb 23.112338872877828 17.53451775426697 18.86256721873947
Rb 15.53795402810257 21.00817541735894 18.534065167734756
Rb 11.942620303459991 23.733000609135534 16.85394174530547
Rb 0.2051774877721058 15.492054476412916 19.618520792075916
Rb 14.838705656031305 12.575895799173223 19.944156434924956
Rb 11.940163361778211 21.56958068048115 21.423490622203737
Rb 22.389527153789246 16.165891087352637 11.107090222704812
Rb 18.594266518105155 20.408033386878007 15.036684053793767
Rb 11.313466808027155 19.046318963776763 16.767983506995066
Rb 25.40070452417721 15.450127821286092 15.009288778431277
Rb 23.07666238917131 12.98774091646066 18.61050471675715
Rb 19.37643687146398 13.635522027778686 22.082216302944037
Rb 22.22989576552163 12.005742588418679 13.746624857494245
Rb 15.535224891888815 16.360601818079953 15.938507879511004
Rb 17.566391206057887 23.03661954525752 22.470836119459637
Rb 11.516075589084622 18.00941816327485 24.74996499553318
