50
Energy = -38.00222348 eV
Rb 15.610615617543024 19.701997508509724 8.560601368646221
Rb 18.91445857252637 16.14687802941765 9.154649868621673
Rb 19.993011280074768 21.24070212851615 10.249361881651344
Rb 14.063605436113422 15.325406101421231 10.264535359044991
Rb 23.171507551681763 17.70016260597626 10.540774620176187
Rb 15.706079869232571 23.099638803148 12.160166083772342
Rb 12.204691826751612 19.58909037195458 12.223525987267294
Rb 24.536251685717588 21.934570113213994 12.83278463299052
Rb 12.508188331099086 11.073421422752748 12.30351746263357
Rb 16.985471812019206 18.36824366088095 12.957558082067914
Rb 20.780514490072076 14.734298362611723 13.632477965938044
Rb 20.152769062768822 24.409017702534126 13.941371933031418
Rb 10.77054053482333 15.126414861015924 14.100383038608872
Rb 24.27264589830944 12.169738719070745 16.50107783465978
Rb 21.324763845350027 19.651198737668942 15.001367480563932
Rb 15.6089748990627 13.700572612690364 14.772483763387427
Rb 25.59752969627128 16.84462816399599 14.56827792772147
Rb 16.157878728911676 26.28645970371146 15.99117622718225
Rb 12.339307967802938 22.858137001980516 16.082588810105115
Rb 8.910929097154272 19.283076833213535 15.965465737736773
Rb 17.078859958469756 21.660286617408147 16.769998464870113
Rb 13.571596032605441 18.123714634135435 16.68543601460775
Rb 23.350902655797046 23.79674875751334 17.389220346908722
Rb 18.100224328141508 16.798323157598716 17.312099865882857
Rb 11.914377152826804 11.315102783658155 17.228429169411235
Rb 19.33355625775555 25.121276692011307 19.591033344284444
Rb 0.6961653367438082 15.191549262412087 19.085571122852304
Rb 14.873737604145791 14.383004467697125 19.85032332744511
Rb 19.374991973015614 12.046910901204013 18.230958320731407
Rb 25.54439640409554 19.861920067814445 18.41213248215786
Rb 15.775479886564359 19.202380131216366 21.035275842999532
Rb 22.50891131521461 16.095955057993486 18.256218355378152
Rb 10.118069907549122 15.628323603164514 19.100658752722147
Rb 15.500258262747735 9.644858648726357 20.337953615445194
Rb 20.523280922023282 20.173099449011136 20.008518208410035
Rb 11.52636441091566 11.865253418478233 22.145504370670633
Rb 11.050092868241107 20.432867247202168 20.2815341971222
Rb 19.390253916457326 10.509416602634216 22.915897465628987
Rb 19.206350534518197 15.625283330406571 21.922941749704318
Rb 14.490827675388307 24.161150464155728 20.470268689936407
Rb 23.434377348644627 12.709404514523971 21.606233532961532
Rb 24.258722863609417 17.418156757692113 22.5687789140524
Rb 18.10183043335119 22.80015401879593 23.650048369710337
Rb 23.2878315048884 22.810891552234292 22.357053173757674
Rb 12.294939935254417 16.58912583259948 23.463164109176102
Rb 15.663338946967231 12.977014014256868 24.55906133396707
Rb 20.58803777898011 14.29091663915956 25.980012856719043
Rb 13.540437529330985 21.25412940600019 24.711097406766577
Rb 20.954573972446198 19.300501833917068 25.18069462042874
Rb 16.59465266862243 17.60403697310104 25.725146190489717
