52
Energy = -39.46717426 eV
Rb 12.092962452225741 20.833702080901528 11.596000725969407
Rb 18.809682445601002 18.647369985141186 12.343209998013165
Rb 15.077148881171771 12.364180175536704 11.508746506592155
Rb 23.432675130350567 17.451540313236958 11.53561507267786
Rb 16.732694258103333 22.818300125423658 10.494202042288816
Rb 19.50973191640866 9.938714667095539 11.894124989556719
Rb 21.589945298790298 22.40782220576219 11.730174387845098
Rb 14.172045961590515 16.804222343341163 13.386780133629985
Rb 15.40680872290895 21.570520875300623 14.822114928740833
Rb 17.555150245127898 17.6976089700054 16.790487395463575
Rb 18.18870253346737 25.490789206027593 14.229478815524978
Rb 16.079131265594516 9.753740089132467 15.201970134383282
Rb 22.153189477196324 16.735586823632605 15.887195928899077
Rb 0.12233548913238855 15.897307789927929 14.880445916662817
Rb 18.704064542155084 13.914494126728876 14.09814510590245
Rb 13.363605474751921 25.2881472935449 12.847542895345807
Rb 24.80802899972336 20.573592609064047 15.040296675343384
Rb 23.31912158852357 12.783152711557173 13.286530271098169
Rb 20.257554644373023 21.52919192507296 16.169016829680654
Rb 11.269714562685232 13.176631723363101 14.344009129091846
Rb 9.759849565082103 17.812102037756905 14.645114582279126
Rb 20.81696368876431 10.095849899810522 16.52796281030741
Rb 14.94690487395611 13.906877718765957 17.368291002281655
Rb 22.92697701702956 25.257100919654533 15.529381112496052
Rb 10.780066484818141 22.630920418595043 16.030601164068173
Rb 14.533230909753346 25.42221424648282 17.552820046296436
Rb 13.040652888722814 18.724240611786076 17.99030280713398
Rb 24.527478408156274 12.980950902800835 18.21139870234176
Rb 10.39911436576397 14.932825717625795 18.713675036857115
Rb 12.278693333390407 10.258353074035146 18.256132005022074
Rb 8.635244678168938 19.6061177709748 19.14852682370697
Rb 19.420224875549433 25.51010938815136 18.8787337121973
Rb 19.721000116133766 13.983107069841706 19.029261474160528
Rb 25.392909329235057 17.73361688448095 19.21811840659928
Rb 16.696207210640942 21.584997977972176 19.56710000577266
Rb 23.624320441785823 22.42096227389165 19.491015593243638
Rb 17.032332802744694 10.063744200635105 19.78423610429861
Rb 20.81510314032892 18.6861177573092 20.149971493534608
Rb 12.056265108983983 22.560281142279834 20.821861845807202
Rb 16.224899674359076 16.845121391619614 21.211291127944275
Rb 15.902292753802469 25.303742983223554 22.272922856777697
Rb 21.824432885249998 10.432789435909328 21.360827136140884
Rb 13.582893149216254 13.128884632333943 22.029275966051525
Rb 11.737096230590513 17.833339732735354 22.584470799697826
Rb 23.030459636700925 14.907144025714949 22.561048069316147
Rb 20.05258861352154 22.682917851067074 22.868539687425695
Rb 23.943257538853242 19.55647853946343 23.47509993961126
Rb 18.247839535184593 12.972502391535263 23.458549697442585
Rb 15.220078477509446 20.664689965797095 24.027060271008732
Rb 19.530649386103356 17.960094977150426 24.71246429297059
Rb 15.380561307592675 15.93515717230655 25.804614162483063
Rb 20.984347893344935 14.127765938471924 0.3424735929355016
