54
Energy = -41.15901737 eV
Rb 16.493320704924614 19.384227293348697 9.33614647996259
Rb 21.434904332236208 18.821560600907173 10.59394347837349
Rb 18.999074406856614 14.94892967249572 8.78978049785431
Rb 11.569129256139016 18.98347568754079 9.592868503689775
Rb 14.296038423914302 14.782411053942043 10.327500886800841
Rb 17.57795453785191 11.800188303841777 12.494527413565184
Rb 13.796268536266748 23.15384241868623 12.008327061357534
Rb 23.357557215063633 22.039072336811135 13.255007370592597
Rb 22.204151462808333 14.42751002151067 12.461184831232657
Rb 19.332928840455775 13.733163365916695 16.778729982050187
Rb 14.05034632939771 18.603105934159906 13.260416045131338
Rb 18.190433291004215 16.584550947766967 12.91944872188664
Rb 18.304462505785608 21.463348381938157 13.7379572247897
Rb 10.410558793579995 15.425694589833393 13.114480344288209
Rb 12.831097019887068 10.884767803081568 13.530960819004807
Rb 14.708279595693826 14.447742437932796 15.286464620603603
Rb 9.939855555855802 20.74958945757045 14.099763088912397
Rb 21.284956209693068 24.14265473945856 16.966509763361845
Rb 16.355713349524784 25.53683705797233 15.986647386495806
Rb 24.28189998712649 13.782901218689753 16.66862465227994
Rb 25.738420229096587 17.88870319258785 14.119017136559252
Rb 21.71473717545849 18.331305933015475 15.956497041530751
Rb 14.038413594402975 21.656406673754706 16.51446180278975
Rb 11.448062591155004 25.292908430909957 16.10550468866405
Rb 25.30683526307956 21.62939929736682 17.703142414331804
Rb 11.431788728290433 17.414071547636183 17.276471730481923
Rb 17.257232989174042 18.02104074845436 17.298072461222862
Rb 11.264249249334549 12.69700630470997 17.890735042814196
Rb 26.007569324908065 17.19345949172262 19.29488217654824
Rb 15.757290160929863 10.558227462601774 17.81172593956943
Rb 26.083306211549935 12.672611831760342 20.941823437800178
Rb 18.07638739780209 22.01287254573441 19.200662936758235
Rb 21.73680616704363 10.56089141379192 19.534051156083635
Rb 14.130571468921918 19.403264817026518 20.51112256280334
Rb 22.079165811183504 19.6950158393067 20.42215844735351
Rb 15.283446776492038 14.842029756880732 19.945304216748347
Rb 18.620115114570716 26.442491284381155 20.453938525875987
Rb 21.654822870404242 15.058223655443985 20.736003750265912
Rb 14.046662282620389 24.32025073969403 20.509548560671355
Rb 10.148098389441746 21.619754074925133 19.182471803291392
Rb 22.51242249439816 24.031976297177753 21.75774061413978
Rb 11.104982322975726 16.076751742224943 21.867690305894072
Rb 26.04912339474331 20.857100616678387 22.54782644401586
Rb 18.16165264521379 18.068190665010892 22.42021225919492
Rb 13.243910189925279 11.548329386692425 22.274702927797744
Rb 24.829686401680373 16.313125895274 23.967703081597286
Rb 18.19177378328409 12.202899445029058 22.45769540183849
Rb 22.824427593010515 11.736447209422831 24.15362251812722
Rb 18.074129956076 22.874134697292487 23.817589686191194
Rb 13.894545219796035 20.49323807902792 24.706350590801225
Rb 21.99945473013505 20.14135959157236 25.143982378230398
Rb 15.143970377106884 15.475198323229833 24.756964374838105
Rb 20.28656648573249 15.367200201479294 25.72595303141833
Rb 17.736172518433587 19.104269747216467 0.35546374824804894
