53
Energy = -36.2675221 eV
Rb 20.564678418793427 16.178790893988275 8.9941883323819
Rb 16.30857548798565 18.660803506591936 10.09790137989746
Rb 11.910169218471514 20.858181638017925 11.374883140859692
Rb 17.00915802822447 13.772132782330983 11.379353797196694
Rb 20.575856032813697 20.953376231929685 10.451171978848533
Rb 12.75117824890127 16.18992905252123 12.45207410016356
Rb 16.245134206849016 23.30891087029936 11.609331713840268
Rb 13.482905551616707 11.595854426119425 13.934642002334488
Rb 21.853940869556634 13.099848674082702 12.595069592081302
Rb 24.19773359716922 17.348530413113732 12.003242052042332
Rb 19.51451543652623 17.37007477800759 13.361808375120296
Rb 15.094093819291283 19.783872529849603 14.596781564803083
Rb 10.3085068470044 19.397921590722216 15.794943422304357
Rb 12.379321104447884 23.740477773911717 15.257162912246455
Rb 18.192246547715357 10.818179680043944 15.129812353104418
Rb 24.335536341184007 21.950138005256097 13.55247082020863
Rb 15.922828239371032 15.065392171687634 15.820203876881141
Rb 11.080636947348065 14.728244408764285 16.749345598160453
Rb 19.503476808315803 22.191994677323514 14.912115652401143
Rb 16.56678030056103 26.052838106875306 15.679004137132235
Rb 22.896690990516493 10.322993948724273 16.52798542562225
Rb 25.35091415560547 14.50403243176718 15.86848004414822
Rb 0.7822250010339864 18.817750912897246 15.318867903160594
Rb 20.689918888367362 14.36197944784226 17.141464695409123
Rb 14.503010657603816 11.507689810466504 18.851626823596334
Rb 22.997797841769987 18.6535630730993 16.543888241217505
Rb 26.33028290808265 17.27021702555014 19.829984855457262
Rb 18.34575425205447 18.584523613367345 17.826757237261557
Rb 15.77832010138939 22.50198887546432 18.558783625337327
Rb 20.81671495370167 22.187818500780555 19.765875313957324
Rb 25.67316490463047 21.89913306084673 18.503346965099414
Rb 13.262495706520898 26.370721825153957 19.251406159528443
Rb 17.898778337832596 26.059850776528613 20.658682444997545
Rb 9.781323306523461 12.02611794908861 20.185960335803518
Rb 23.95988020774758 13.064627143435114 20.467150368526458
Rb 21.615700815942773 17.354860949075093 21.05271745261918
Rb 13.689226700302159 18.077593992440125 19.10680121593467
Rb 23.995735775398067 20.89528340522266 23.07668646051229
Rb 11.101588336403031 22.03970352371699 19.842897853958895
Rb 19.52375115450032 10.809146097408956 20.110494367092407
Rb 17.279093735830457 15.055100401860816 20.76354205548612
Rb 17.17774887816229 19.755511929134304 22.290086472650675
Rb 24.72957993770781 16.105429967014278 24.26273146413547
Rb 9.212235256978719 17.376839305448723 20.342852284732352
Rb 19.68764408238491 23.268281203131732 24.27955467821819
Rb 14.520825892462316 23.72892323849825 23.153317527128753
Rb 12.645128883429397 14.732050223782093 22.455183653863216
Rb 20.445149928709935 13.736146886334227 24.012648930172983
Rb 20.511400312964724 18.588371483977333 25.520650323448855
Rb 12.454145857075433 19.38158445164315 23.716537173756524
Rb 16.10715819460435 11.568474699082756 23.603087430906825
Rb 16.24340867749396 16.149387833248408 25.304216107776174
Rb 16.090657979851112 20.81168486956732 26.693102373511632
