52
Energy = -38.83984949 eV
Rb 15.64042496446531 17.544235165844984 9.88961093349133
Rb 19.466063540292396 20.06558834608247 10.173675181247427
Rb 14.641446318317662 22.36345957347673 10.470608850327107
Rb 11.366126133486443 17.6712992092401 11.392852805384937
Rb 14.323539567650318 13.531179549899727 11.858618535104123
Rb 10.072354957170614 13.675099884005775 13.894009500955642
Rb 18.5652775440558 15.97305156219943 13.40582962567917
Rb 19.11833475290652 24.115637689300424 12.50706223944788
Rb 21.810587006613122 19.8794607723714 14.540992443798338
Rb 11.702617127114367 21.25944626945225 14.365934748380836
Rb 22.56120751828289 13.299276276083605 13.598011077671059
Rb 16.621924900374587 20.289821698780518 13.824441257185962
Rb 23.311896507079524 24.37397779621703 14.946458016081495
Rb 8.605105386902983 17.860507687993927 15.352472420635207
Rb 25.75037973464933 17.00692740126969 14.482280430881065
Rb 13.463256151138337 11.497243784509745 16.205568652495362
Rb 22.307635697013044 15.795442772693495 17.417541572626444
Rb 25.99561342628623 12.812778847406202 17.031972549392723
Rb 13.730155406703652 16.586605367839585 15.690713396050535
Rb 15.082699880926711 24.792871920573145 15.08903823827953
Rb 17.919631449162026 11.177655083201955 14.059108198268927
Rb 19.36540999683318 23.289418312959377 17.35532725334321
Rb 26.35820879171197 21.113781380602358 16.808396438885012
Rb 18.51830705898901 18.446232660603254 17.59461600815016
Rb 21.541487469860535 10.956916398271423 17.70839357632331
Rb 10.405317086163919 14.50437982846856 18.736305196629182
Rb 17.60681202566165 13.869786343665368 17.90985086067997
Rb 16.939829727250512 9.229580759776791 18.447096422410336
Rb 26.66800616160389 17.002348453390947 19.391505674638637
Rb 15.743533453921287 25.08808167054336 20.340661920770977
Rb 14.840621273812529 21.158034238304563 18.076264586828042
Rb 24.4137503796636 24.55226852133907 19.596139438538216
Rb 22.66787863942103 20.194256454591542 19.712194503943728
Rb 11.573364034557382 16.518167251052642 23.21570172905837
Rb 11.2838153119031 24.04566583225194 18.36610686384421
Rb 23.92860817101239 13.430944699351395 21.30602015794635
Rb 0.18888016083729686 21.181751651253744 21.705565849018836
Rb 15.070275589069302 17.155144364358463 20.580024868233217
Rb 14.101505873814572 12.483085113792084 20.88201051989126
Rb 20.024495051907287 16.354692071487243 21.628565336206325
Rb 19.35153563491265 11.592941421966687 21.917854036578273
Rb 20.324337449847217 25.29343903746663 21.65455635239186
Rb 18.212996826992466 20.902477817599095 21.65097644713777
Rb 10.700613851364235 19.201584999421737 19.20472552300121
Rb 13.167276357031845 21.633850980580224 22.50698582039257
Rb 24.451240943918314 17.674666836069893 23.81750553881228
Rb 22.883472875481573 22.364516544324264 24.09414736390732
Rb 16.664955018655235 14.701742332134895 24.465733374501017
Rb 21.601059093988397 14.10381729366712 25.480064321177327
Rb 15.394041129794918 19.015060538804107 25.45302420466583
Rb 20.129164637454313 18.9000363027569 25.68061205768422
Rb 17.885882385608568 23.313321886346312 25.359825736671006
