6
Energy = -3.27364306 eV
Rb 6.724385759946029 10.164368641790215 10.06544611190805
Rb 8.275594501125385 6.054565089375953 8.329078355704656
Rb 10.688699076988748 12.38714345860435 11.2406881619768
Rb 10.003054083839652 7.460368305194958 12.391551984104048
Rb 12.097948491222253 8.818419148429728 8.367009156697517
Rb 9.356005807747193 12.260823077473926 6.75191395047832
