6
Energy = -1.2145284 eV
Rb 14.983317679492199 11.64542779153517 9.33438544767316
Rb 13.751783595758933 16.20986318349881 10.142293413280024
Rb 13.302015614875307 12.979142536046218 13.099324352602254
Rb 11.6592006867501 16.619466792153563 14.692746813654951
Rb 13.442536768754808 8.857870100020484 14.48158115867098
Rb 11.592464871892604 12.41954881426971 16.980988031642852
