6
Energy = -3.32910278 eV
Rb 12.16583669839666 11.62004681711947 8.832815238435273
Rb 15.464260317179743 12.526220198414816 11.806756571249373
Rb 10.844208941993278 13.458437592052436 12.754532677075694
Rb 18.529564374781177 13.424361311569157 15.039288585176479
Rb 9.86683120368861 15.483410298633617 16.718965553778233
Rb 14.242135614249346 14.600360932499594 15.960478524573622
