8
Energy = -5.04102154 eV
Rb 13.400887670936493 14.590976494708627 10.11758609425401
Rb 12.781920359206802 9.987050280570742 11.511566628968554
Rb 10.765635328723114 16.518956769833565 13.485724339876137
Rb 16.89191379762441 12.22520331983195 11.613386894228292
Rb 9.207179579219385 12.634943630402898 10.95086838808451
Rb 14.752961995615285 14.95533790898229 14.774708243995342
Rb 14.865339362076229 10.363349110874962 15.686084457985766
Rb 10.804273247454933 12.194293825651883 15.330186293463909
