8
Energy = -3.25934186 eV
Rb 12.57175234759741 12.005570891737893 8.444804805339631
Rb 15.52343458118379 11.669025585221041 11.987363875903386
Rb 10.080513433452897 11.878677473053957 12.370108102617369
Rb 12.890968974475353 15.508509219059295 11.377038229865654
Rb 9.86496995867098 15.675632734162413 14.897538723596123
Rb 16.393481843733817 15.444889904358346 14.333173676023192
Rb 12.764891988309955 8.458514193339596 13.919958437417135
Rb 13.136175306641386 12.585368433133052 15.8962025833035
