8
Energy = -4.93010617 eV
Rb 13.512685617182388 11.309226580591703 9.673403015345835
Rb 9.540287662564799 13.638443526690496 10.390482077567963
Rb 13.178049468412349 15.94417025413336 11.736275194187497
Rb 16.758950375280847 13.046169615926967 11.914380860907139
Rb 10.619937403107139 9.919141378262683 13.033245913370452
Rb 14.411251596496632 9.965634186885325 14.767245112967672
Rb 14.23897294743108 14.506003605641736 15.673874826000532
Rb 10.04918800368173 13.980533926024824 15.12041607381
