9
Energy = -5.5600497 eV
Rb 16.31646073116319 11.595145408801592 9.915275036569508
Rb 11.468980329441063 12.453755664646186 9.902808230247082
Rb 14.436914161974073 16.329853627679064 9.929587129155507
Rb 10.571535466928768 16.092654129409613 12.62539746132326
Rb 9.958754014805304 11.769675042702008 14.229482957275001
Rb 14.771144014049565 13.69592487351881 13.692080082324145
Rb 13.278096465062463 9.05307318624296 12.483478035473661
Rb 12.027146372765202 15.2152635166275 17.02441655665159
Rb 13.887102569222566 10.510788675784468 16.913608636392443
