22
Energy = -44.27275962 eV
Ag 10.47383439567048 8.762419961538768 13.432884521979636
Ag 12.139741183898197 15.107387701629314 11.768332325076507
Ag 10.994144973820353 8.950272591004452 10.727341128740399
Ag 8.322668283985513 8.778857613579474 11.61461001441697
Ag 6.587533068183945 10.936068602017343 11.457242536780223
Ag 13.124972863234078 13.787848837659302 9.547517779088317
Ag 10.256386877180063 13.529155889393316 13.212927436817852
Ag 16.85611206100536 12.130174822239297 11.970209928656974
Ag 10.421652110661201 13.530938436745396 10.173314134749722
Ag 12.922720730416106 13.669389718687635 13.98764556294605
Ag 9.149087107547224 11.053911838406385 10.188150942443496
Ag 13.131128167046752 9.086692069288425 12.677064521639185
Ag 14.477378860720679 11.469288623808099 13.27905225201119
Ag 11.668540128624853 11.209676188815116 13.769236700963132
Ag 13.645686988329288 9.09782703676081 9.932874062079426
Ag 11.905168787718235 11.27677233218572 9.590456154533028
Ag 8.906692680196803 11.099001379375133 13.095289967830468
Ag 14.70965680937767 11.642412196952874 10.272351056477138
Ag 14.764348269225913 13.951983912388997 11.871434459945773
Ag 9.391514617942713 15.633430229090852 11.652128140108502
Ag 7.910792568045559 13.308878543800702 11.575787224640813
Ag 15.791400467169344 9.538773474632407 11.755311148075199
