19
Energy = -37.33111556 eV
Ag 11.79436986636371 12.845910828780807 7.8385865371517545
Ag 9.108036118388043 12.321995719755293 7.783652653335787
Ag 13.117318431353121 12.657545802846917 10.200524877576585
Ag 11.735222629476295 10.296739920721732 8.841280077660763
Ag 13.408840524090213 10.06157677175774 11.038299072662879
Ag 9.21876665490476 9.567169500192646 7.705127268796621
Ag 10.320068112758447 12.503434672895363 10.282639056457477
Ag 6.774709040605825 10.926692227861034 7.382485938711452
Ag 11.361254067796462 7.846908307801133 7.531696785041888
Ag 12.004059021884544 7.8169764414152825 10.2292140747953
Ag 11.804185915119033 12.130844091574366 12.601533980246396
Ag 9.373168160047198 7.357539255827238 9.444311648766137
Ag 11.049784280111252 9.482491562343181 12.289277288910839
Ag 7.80677684225347 11.245940383662392 10.004159767881685
Ag 9.033326128476476 11.448580869859876 12.496476107190814
Ag 6.947506559447566 8.729353465094473 9.118024949776963
Ag 10.090723815814414 6.900373136733522 12.099786650030277
Ag 8.251487557011863 8.940467151021245 11.524832404777582
Ag 9.058164478561974 9.161881038999198 14.139422799666109
