25
Energy = -50.09372852 eV
Ag 12.339909811600895 12.862000479023791 8.240961530776456
Ag 14.263766224916724 12.587018686418935 10.278276698650453
Ag 13.144867454414637 10.246732597264955 9.085115144709041
Ag 10.490356151082851 10.818777243133072 8.299544151665101
Ag 9.10857887418211 8.865396970562635 9.80877212099956
Ag 9.828313819987763 13.355188538634605 9.460386515587377
Ag 11.376927619440341 8.159341079931565 8.318666664737718
Ag 12.363156690014005 14.64793601009213 10.338425195979289
Ag 7.851685669022275 11.308941993945302 9.130305942794793
Ag 7.443346351483314 10.857529791334041 13.891461132242624
Ag 14.096935926333215 10.288710183388968 11.757163579146455
Ag 14.47580258239622 14.657789567078138 8.502341863948981
Ag 11.389331250209013 11.62806115745642 10.98688260417597
Ag 8.316155232567603 12.329831682955403 11.673864827091458
Ag 11.68653900195944 8.792761585612215 11.03343775088387
Ag 6.957214813338158 9.811332190738717 11.360544677977893
Ag 9.506823118981515 9.738515543523862 12.455502333641641
Ag 14.669564628030926 11.958124347797748 17.014040263782064
Ag 10.375391595445526 14.158033732946489 12.096207796071434
Ag 12.050489114235644 10.086362383759448 13.579307514677676
Ag 12.940172085135035 12.943634312539052 12.869991329357159
Ag 14.61277629144813 10.928355750091798 14.364424619329952
Ag 10.084480587468022 12.094629978382471 13.918937569248254
Ag 14.718327155193212 13.65955090669627 14.907793665860018
Ag 12.338647072757558 12.121655702960874 15.53385692293425
