46
Energy = -99.54733442 eV
Ag 14.737102535933346 13.620202134226735 8.160002786019493
Ag 12.134011897084616 12.555905059512408 7.834734544309182
Ag 14.421554054900412 10.93120727946945 7.7893469579870365
Ag 11.766917427276518 9.99828541060769 6.500949092340023
Ag 9.528067772167859 11.730606107854559 7.291517423138836
Ag 12.612054561852764 14.74724038783499 9.648218074597953
Ag 13.93918691179045 8.239865589159928 7.665891665933029
Ag 15.310589463551679 14.964574667333155 10.491308606390122
Ag 10.02308753253891 13.989438615314027 8.99891735783441
Ag 16.259560351997244 12.01997372764131 10.002710158605526
Ag 9.369563378154355 9.049259450769885 8.02494940804632
Ag 7.437956019687546 13.164114319198362 8.549827418926412
Ag 13.605958523737682 11.885766227425298 10.440041837304923
Ag 11.395604026274906 7.221944310274915 7.986376184602289
Ag 7.047978959757547 10.467903901696985 8.161993236255912
Ag 11.951330613468354 9.9236135788281 9.156450420173332
Ag 10.466261202664086 15.444520757732134 11.800870647482757
Ag 15.141994306476478 9.307265491265579 9.94393224986967
Ag 9.314257849666951 11.025045577842425 10.220925589827994
Ag 13.242043546984913 14.789264993188688 12.353009726510397
Ag 15.715586134064031 13.28018652134411 12.633755662376048
Ag 13.025296308060451 7.461687901379483 10.270198920241933
Ag 8.326736790665217 13.554538521568777 11.217953707680287
Ag 11.957595601746858 7.714067298003563 12.953977330914007
Ag 11.587920464088914 10.211579398352441 11.887381024030585
Ag 14.11626495376729 14.129895684298525 14.92954597182564
Ag 10.244355098074884 7.983659064519034 10.496290632358802
Ag 13.199872595948056 12.007786373921146 13.282751833155874
Ag 11.312757838016486 13.881303722320048 14.244627129266467
Ag 8.60652167784924 14.415056484248337 13.950914076972424
Ag 11.149474839618085 12.872270481835438 11.377182113915888
Ag 15.57864450847542 10.514101361303462 12.384982715213834
Ag 9.342085872515003 11.779835723582273 13.288439108759452
Ag 6.300692002679869 11.600869533082578 10.592344267956518
Ag 7.501671569334947 8.974374841132347 10.567067552899402
Ag 15.450268824684622 11.657486707914256 14.976689753857217
Ag 14.772229884849065 7.79081508065847 12.378754229651031
Ag 6.135398971794662 13.15063541362486 12.92276669346781
Ag 9.218304035450924 8.885901974983398 12.88292876832945
Ag 12.71564258208538 11.896820289290005 16.029553769695685
Ag 11.114155480939468 10.000207998791254 14.735520671724272
Ag 9.935142191921978 12.269708880493038 16.098957463606023
Ag 13.792437604991296 9.447693965389028 14.356982144434317
Ag 7.24471067227998 12.394625679856597 15.293392242075111
Ag 6.867791331264874 10.42978561156434 13.061948550438204
Ag 8.419985022729946 9.911982108028335 15.428865581241315
