14
Energy = -25.88465731 eV
Ag 9.356533 12.155464263025811 10.45754896393822
Ag 9.356533 9.356533 11.508797912478062
Ag 12.116142004095494 9.356533 8.002849396472545
Ag 9.356533 6.5576017369741955 10.45754896393822
Ag 6.5969239959045085 9.356533 8.002849396472545
Ag 9.356533 9.356533 8.683333992675163
Ag 10.747847118313567 11.84144089619738 8.043759507935656
Ag 7.036426059152819 7.9994488706807285 10.425873835570624
Ag 7.965218881686433 6.871625103802624 8.043759507935656
Ag 7.036426059152819 10.713617129319271 10.425873835570624
Ag 11.676639940847178 10.713617129319271 10.425873835570624
Ag 11.676639940847178 7.9994488706807285 10.425873835570624
Ag 10.747847118313567 6.871625103802624 8.043759507935656
Ag 7.965218881686433 11.84144089619738 8.043759507935656
