18
Energy = -96.93986117 eV
Rh 9.788534041727843 9.196751331459451 8.430354266654916
Rh 13.131150349637542 9.865654886902501 11.527913723432953
Rh 8.60566038766088 10.745586400205958 9.85886737170324
Rh 11.222996377151933 8.327060888537268 10.46461109099398
Rh 9.016721735897843 12.561729033691293 8.292468271956437
Rh 9.350446120284714 6.940747764179715 9.631728944736441
Rh 11.900051843586805 13.958159741277493 9.992027655140028
Rh 8.660686744583167 8.498145250133605 11.398174573638183
Rh 7.632391314122215 7.90146072695615 8.223170140137283
Rh 10.074708807973785 10.918531181248122 6.820249031525726
Rh 11.50475624681959 9.249910819383242 13.21402742268457
Rh 12.157542944864145 12.266607017511523 11.724901742889973
Rh 6.754985223303791 9.20099428314212 10.00070103111779
Rh 11.579401311020218 12.291400209974721 8.225585167353263
Rh 11.468647615047002 10.698238227583225 9.92351709484868
Rh 9.977571843068922 10.574106680977813 12.01772346135381
Rh 9.839154237634707 12.751731384572743 10.7684528733755
Rh 10.384138787816026 7.216877520390363 12.549746283195361
