13
Energy = -68.3985405 eV
Rh 9.862634901671983 11.567016754270886 7.930912379396812
Rh 8.0605570904999 10.084367470842679 11.787336497142496
Rh 11.962219019245742 10.096535170906513 8.670929762245397
Rh 9.454817795998778 7.914855913899892 11.640875776455772
Rh 8.457410071911674 7.4761779339009635 7.602576552851632
Rh 8.030540087752996 8.861284572457746 9.630650294667063
Rh 10.221978770854554 9.245412238461494 6.947188154459103
Rh 11.775125523937351 8.853517373352231 11.003375550982973
Rh 10.325048471882877 8.11201641972474 9.137371903068948
Rh 7.924231568090434 9.982587372215955 7.424770750231154
Rh 10.39267615679977 10.026816547923067 12.757155893174016
Rh 7.794887090864022 11.480160969744018 9.548700023166994
Rh 10.063340950490472 10.624718753674028 10.24362397940866
