14
Energy = -73.95702246 eV
Rh 12.317976188188988 7.3870248129125144 9.012530655425739
Rh 11.881848033544529 9.007864115738602 10.832216158482858
Rh 10.439671252148312 7.466407158740897 7.31739303522759
Rh 11.133547545027229 9.64614618584194 8.455860278487393
Rh 9.753620566440722 8.876571358354425 12.203754239975261
Rh 9.90571088681286 7.810429488861844 9.828788531731497
Rh 9.778606543446372 9.632304622320683 6.2587981903457495
Rh 8.254163209038646 8.613487920579466 8.039319534167037
Rh 8.363309340965237 10.906512233476352 12.512610345472178
Rh 10.007015175347576 10.782604992453924 10.529868977033109
Rh 7.877165962582817 9.310639915062918 10.507201868293368
Rh 8.956603378159553 11.034151001248537 8.196458760148971
Rh 6.517467108393369 10.377583603759923 8.586740638631634
Rh 7.660117787280772 11.832813009386914 10.269953496934319
