17
Energy = -92.54126645 eV
Rh 11.770208489510853 8.885800366276516 9.339325350959301
Rh 10.339177083691073 7.279067560564137 7.721229553340935
Rh 10.79157295854857 9.987130244641248 7.201207606714973
Rh 10.929067323475996 11.3339559286746 9.415742040865776
Rh 10.069023331616032 9.557559132189814 11.295022065161502
Rh 10.260132033427803 7.0982791385878885 10.442150654223314
Rh 8.326034703732402 6.327528670017556 6.400750289126116
Rh 9.162850627658978 9.067103398789339 9.022449151947972
Rh 8.619479967825725 5.8365451846301095 8.883707688895088
Rh 8.499557858748283 11.19657919056439 7.808112032413799
Rh 8.644069865997434 8.856292134182132 6.4851518816860905
Rh 8.596066392788162 11.430476482688979 10.40488831023231
Rh 7.587666211335012 9.689775947888883 11.97433040409142
Rh 6.385720707788354 9.864666778020782 7.001648638803677
Rh 7.796249202209802 7.629028924765592 10.585260148989017
Rh 6.99988096727966 7.672146081553787 8.096945446685377
Rh 6.796600524818983 9.909869802507464 9.491880235338018
