10
Energy = -49.51945889 eV
Rh 6.685308147007861 8.055413653014645 9.778569263213237
Rh 8.69125761 6.581713711594493 9.77511255437508
Rh 10.697207072992137 8.055413653014645 9.778569263213237
Rh 9.920206470556952 10.393802808976622 9.783808508598707
Rh 7.462308749443047 10.393802808976622 9.783808508598707
Rh 6.685308147007861 9.327101566985354 7.603945956786759
Rh 7.462308749443047 6.9887124110233785 7.598706711401291
Rh 9.920206470556952 6.9887124110233785 7.598706711401291
Rh 10.697207072992137 9.327101566985354 7.603945956786759
Rh 8.69125761 10.800801508405506 7.607402665624921
