11
Energy = -56.10542694 eV
Rh 11.379851220298457 7.207080574950668 10.104051808171423
Rh 10.962705029859876 9.766249323993542 10.421602979325872
Rh 9.870779669956391 8.362608386362478 8.451154594552978
Rh 9.140233404178485 7.9556312907989755 10.943720808590939
Rh 9.27209662177477 6.055794156966073 9.282084206139896
Rh 7.406610306546117 7.927156138882015 9.083817600150583
Rh 10.213561052860625 10.868413350910137 8.173738659003105
Rh 9.913026216464067 12.150436709173837 10.312531127218246
Rh 8.392966601409706 10.171828829892766 9.940169547328185
Rh 8.023031144077802 9.829551114138315 7.398308221066411
Rh 8.12196747652108 12.234856200436012 8.515969365783672
