16
Energy = -84.39254308 eV
Rh 8.095480337180682 12.959278740464576 11.398862733435964
Rh 8.651363232970645 8.701612594314588 7.974789151165252
Rh 11.434134849667187 8.21239341813321 6.743981460606567
Rh 8.307861316467562 11.828235518955871 9.351860658451105
Rh 11.83670145879749 8.691692163904817 9.15348819394047
Rh 12.757990203852266 10.288463878102085 10.630766724799585
Rh 10.420223824137826 7.865023749180375 10.963733631658622
Rh 8.24793350570211 10.940622503865745 7.105619689774544
Rh 11.440323825104121 9.418062750160194 12.465377234937904
Rh 9.740246569950727 11.00128529004995 12.034084694141253
Rh 8.12808580208241 7.20266723345847 9.947855093598161
Rh 8.838030827864646 9.596781145845595 10.267279125090594
Rh 10.749859676292168 11.457056045025602 9.846713222410905
Rh 8.51299090609912 12.266568769002275 13.616414723239293
Rh 10.213213504116078 6.883369132454354 8.514083362257837
Rh 10.572200489502714 10.319991728197678 7.666670798871159
