19
Energy = -104.4297619 eV
Rh 7.360994305562382 8.411779337652646 9.992140553142697
Rh 7.532032615626682 10.849823711218281 10.290901311631288
Rh 8.865341675413568 9.659524203529836 8.493387119193493
Rh 9.913684657606328 12.951642813804865 11.876853629373404
Rh 9.436860827479808 11.829291836616507 7.596921691258146
Rh 9.175989639649897 8.168083313105711 11.577802674104433
Rh 8.44682608465868 12.957006048261707 9.575474685369834
Rh 11.308932620322299 10.924639588106198 6.467699968690163
Rh 9.43523640505711 10.541753148276795 11.74551656955407
Rh 11.269703316029995 12.519763652286933 13.952325650073345
Rh 10.843653987257735 8.7567371742331 7.500596590771835
Rh 10.788597833700413 9.130175118262436 10.089576663300752
Rh 10.876077263294219 7.796161447410504 13.257487279216459
Rh 10.705353026286707 11.836355492128826 9.779599863901478
Rh 11.287991680388783 10.214171937853378 13.280941605077905
Rh 12.273694243108475 11.958110448740317 11.753923498350904
Rh 12.38791454027705 10.499870687069125 8.66789992240756
Rh 12.518627727338712 8.739541979808147 11.684693074402967
Rh 13.807632441088 10.51960779625022 10.643132073090484
