19
Energy = -103.04848999 eV
Rh 7.912331451862462 7.760389108910252 8.376744230764377
Rh 11.81535665639256 9.101132100047698 8.135665086890235
Rh 9.226474572527293 11.770618938559652 11.371732559817325
Rh 11.263362227618673 11.46887178395096 8.846716924055672
Rh 12.373524196564691 8.440774806325425 10.478810884611747
Rh 10.310879063482798 13.221218888552707 13.11541652049382
Rh 10.760568432681882 8.576461034798523 12.471243141408642
Rh 13.477264678264106 10.474162314442674 9.46824073529727
Rh 10.3626006048646 13.799720037446049 8.728988878393105
Rh 10.622248638422024 10.886974108298915 13.549439881712631
Rh 9.401203685146484 9.807399435140079 8.200122136909851
Rh 7.02353087550253 10.409708570887233 8.37580827273451
Rh 10.111426789124044 7.4897552604925295 9.34531975188873
Rh 11.119411429772029 6.426320420111944 11.293729999542505
Rh 11.690535912511862 10.754957139054317 11.326403826343185
Rh 11.358624854415709 13.191987859413754 10.91390323789154
Rh 8.673202680309185 12.12253228706422 9.055454685790227
Rh 9.45204508766142 9.407554423858642 10.681648037456274
Rh 7.14550839661115 9.007913572845057 10.345766061968478
