19
Energy = -103.15581353 eV
Rh 9.772358411656324 10.446534511453176 8.093558992555169
Rh 6.533176079666684 11.655595227041184 7.992145743322148
Rh 6.715602567159347 7.429409626918864 9.42745366846511
Rh 7.672527955003518 9.767975144827814 6.970990367351016
Rh 8.466966618788524 8.014502430446202 11.007577076089204
Rh 12.821902883108557 9.963128403989312 9.133102840449686
Rh 10.75982356125889 8.799184386774044 9.93538129556882
Rh 11.05904958563849 9.97648729583888 12.365337130927657
Rh 8.936833112675531 8.040526576913487 8.439455803774722
Rh 12.918231679518179 8.650283163184422 11.275803792436534
Rh 12.630439454053523 12.474207439553467 8.941733252400066
Rh 10.659084280179123 7.46837217031061 12.073874855614237
Rh 13.032027228248442 11.257396447393527 11.341148774139565
Rh 8.72776251159505 10.622126486533915 11.477425658065462
Rh 8.45785029434016 12.139624255162587 9.392853584059441
Rh 7.370771068626349 9.831054931919287 9.49218842220868
Rh 8.933438269293504 8.925892057300398 13.303175340378358
Rh 10.760272633896971 11.477215471740285 10.223886651333974
Rh 11.812177382177122 11.062601356946185 7.111670666431769
