10
Energy = -51.02422295 eV
Rh 6.4084415642580375 8.669808074228767 6.1445383414920185
Rh 5.481982607499946 7.929632420717821 8.32529175723552
Rh 7.672425516473461 7.261150513825842 4.596678707435507
Rh 7.219100028982877 9.89261628365073 8.151151760503641
Rh 5.659424823392534 6.313243522359289 6.337703802007125
Rh 9.377368469270401 6.021566625355428 8.50158900402443
Rh 7.813326823182808 7.770450312579723 9.236784018698145
Rh 8.057227524840204 5.67612804148961 6.417797311897738
Rh 8.699411062786544 8.03718309648462 6.9148016444513045
Rh 6.780919421884515 5.597848951879763 8.54329149482616
