16
Energy = -85.9621842 eV
Rh 11.29149747909226 9.47706233955307 6.241531333170223
Rh 9.804556969219794 8.295217323376784 7.844321582502097
Rh 10.63362721183839 10.759899424012197 8.205263303123322
Rh 10.193948976944272 11.316877414258299 10.542454354956455
Rh 8.821522834806096 10.095844002535717 6.390591071689452
Rh 11.038834704797182 6.453758729669004 8.961115423052796
Rh 11.102585200822682 8.895539150773727 9.896710418929812
Rh 8.195004497977104 10.454729595148857 8.881470853327196
Rh 6.387281048771476 10.085900351745808 7.094053484963516
Rh 8.863230360507186 9.34207237389079 11.04263613344663
Rh 9.854852689609094 7.001651082794983 11.091690442996939
Rh 6.612114978386292 8.408708618732025 8.871700163104604
Rh 8.463276156677667 6.629129609034934 9.06576125844794
Rh 7.220341814690452 7.473376443905397 11.09855078361855
Rh 6.481089639311496 9.970923281935455 10.810266745789043
Rh 7.609800709523573 7.8552045203675025 6.650368442125608
