14
Energy = -74.76560963 eV
Rh 7.251687460699981 8.198854012348908 6.561979108521999
Rh 7.264002274494645 10.564446817969133 6.553065771746413
Rh 7.7502219221472535 8.201721681765791 8.961467231478984
Rh 7.7620358047188045 10.573643005300227 8.953214812427
Rh 8.215350069618022 8.222951928069426 11.436748996552538
Rh 8.227030518511654 10.564020015614528 11.428956327269029
Rh 9.619593591288819 8.185706483041976 7.27041969369712
Rh 9.631319474880481 10.557832532440392 7.262257575401477
Rh 10.165354802055344 8.196509429900868 9.769323932440072
Rh 10.176698783175604 10.560432620388069 9.761526201266621
Rh 10.592072362647484 8.170782731774343 12.259447818287935
Rh 10.605073233016014 10.59851457320375 12.251637006841166
Rh 12.262635240369164 9.371996365558228 10.69351309009114
Rh 11.810714462376987 9.366377802624099 8.17023246575072
