11
Energy = -57.14496945 eV
Rh 7.049185289250407 8.06465056260884 7.420232690103268
Rh 9.519517574826887 8.64706035599231 7.746546729849648
Rh 9.209446520778474 8.1079491352883 10.444247029567084
Rh 7.938943317995344 10.303359546916317 6.507118855375133
Rh 11.11233742248831 9.512756687827936 9.553129174181166
Rh 11.088935635224306 6.994960347863558 9.004806518989461
Rh 8.598421681315228 6.4369149522114775 8.648369467643382
Rh 9.138674161689623 10.591439085976425 10.800520376164556
Rh 7.455575505510152 9.95026610746145 9.053791480697633
Rh 9.563280377675609 11.139943545058406 8.324320565503067
Rh 6.781634513245649 7.706651672794967 9.95286911192547
