12
Energy = -61.88459968 eV
Rh 9.111875243033893 7.966129980739766 11.117249155132559
Rh 9.51415477733738 9.993699832704117 12.529821576933777
Rh 8.062992196566299 6.813307934369123 9.212680612071056
Rh 7.536264514166555 9.747165697805208 10.83864922009769
Rh 10.770522331629895 9.889327466045872 10.500825643084674
Rh 10.113056982134065 7.948795260258571 8.71383656755117
Rh 10.519696090096014 8.584524948837446 6.344974152806951
Rh 11.445173259748772 10.048449507206488 8.017633882226223
Rh 8.93130803004914 11.297013116526678 9.714284561477442
Rh 6.854933598620619 8.788029970924484 8.672608777819567
Rh 8.851920459204466 9.778484987826806 7.815337277255043
Rh 11.170966325389942 12.086430160057732 9.293295683949871
