19
Energy = -103.22173599 eV
Rh 9.283594599100752 8.224155867114765 12.879667436524182
Rh 8.587629371141244 7.219082379557777 10.634769103455131
Rh 8.203290257124191 10.897948580083934 6.557954524295359
Rh 13.040618612074667 9.214186601464327 10.049366148078832
Rh 6.274877004004701 10.377245255085597 7.862355737863926
Rh 11.595808656270952 12.796810234209032 12.28675626152989
Rh 9.497654994956875 9.377112032994198 7.858542879228695
Rh 11.904356629925875 8.914010701939105 7.771370346485024
Rh 10.765599235287889 8.00776061299086 9.818992974267648
Rh 8.288258092630473 11.383742683098282 9.09118764632248
Rh 9.219022088817603 9.731824332568173 10.899309739654413
Rh 11.67191097411769 10.337024810047389 11.857880798065867
Rh 13.232075536992234 11.767887875060524 10.528220428844728
Rh 7.5101300273017735 8.808452004806524 9.149291039555045
Rh 9.525414917434833 12.264800339345976 10.939060873570437
Rh 11.550504862668289 7.943986293639393 12.175731903777633
Rh 11.140212250907192 10.881301735042932 9.268011506729616
Rh 9.620231970306031 10.792478510671815 13.120825806691697
Rh 11.423452781938662 13.40351910089444 9.80614752754504
