17
Energy = -91.95732489 eV
Rh 12.768813006360837 8.06797532192187 8.079253093561446
Rh 10.500491202419719 7.416035163428733 7.19228150820424
Rh 11.265288545509708 9.877930960993169 7.097379011089288
Rh 11.104148272061687 6.958522019286463 9.660723715108483
Rh 9.784685437880634 8.305804356340103 11.431285312177264
Rh 10.297547344635785 11.000860303574726 11.265425175323124
Rh 8.005538407153194 10.211477068097684 12.241122001729433
Rh 8.653366411665036 9.75038255613043 9.747137707450507
Rh 11.296542942229873 9.460332193682001 9.57568088866572
Rh 9.9507250756894 11.531199914775684 8.587463151602494
Rh 8.703075056540602 7.330746162501325 9.002318365006651
Rh 7.198588282297094 8.039066375089588 10.986557809905685
Rh 8.11034249339244 12.201482953386234 10.493402900108183
Rh 8.81129288352513 9.327070232778418 7.256959155938551
Rh 6.143682205354021 10.492640244381988 10.44226421678221
Rh 6.593832556972003 8.7821836529224 8.51983650202515
Rh 7.364201174690388 11.282704173027428 8.142500103319557
