15
Energy = -80.3886515 eV
Rh 12.199556183211904 8.145878264492993 9.509339395750885
Rh 10.473292244398941 6.233273457826182 9.666414211282671
Rh 10.027193080772935 8.206499934338433 8.166078076000026
Rh 10.098711248047767 8.486200886973533 10.901914120535771
Rh 10.895987318639355 10.322226791107827 9.257752290946087
Rh 8.228813662856485 6.46271646142926 8.433189321291753
Rh 9.979894173156895 10.346969816793518 6.816767972400291
Rh 8.305473403141976 6.591947456214213 10.999422388519424
Rh 7.660970699213011 8.608381847941574 9.622734183676679
Rh 7.792910545425709 11.49785242824276 6.286942448004783
Rh 7.849716691710737 9.029473571809854 7.078303028950071
Rh 7.913767449565378 8.873533399329501 12.15295622131603
Rh 9.177896254017565 12.092303928617433 8.396694856570093
Rh 8.751466539792792 10.685846858799863 10.573274652038728
Rh 7.041212999082352 10.846780958608573 8.61465997866114
