14
Energy = -73.80411575 eV
Rh 10.454104627513722 6.487376230903651 8.00957360177242
Rh 10.294360429942696 8.859899280163345 7.363464899949608
Rh 10.125872507190474 11.77597592882132 9.32342566107182
Rh 11.320816788630276 9.60573019364836 9.39957828248669
Rh 10.63817385538971 7.422222330964154 10.285265380600075
Rh 9.036633556937186 10.918466487962483 7.383804610312475
Rh 12.283364969602083 10.171877935191421 11.535010080928645
Rh 10.611187359544923 8.669257156725312 12.453045888218202
Rh 8.518584528073784 7.801335387172394 8.774218082552514
Rh 9.635523411190473 13.500527502676434 11.02974320508259
Rh 10.180106011868428 11.288090107362663 11.953780801122239
Rh 9.095487784775708 9.427377886664912 10.644690981554533
Rh 7.946631397665544 11.72489395435575 10.665673440712087
Rh 7.403136456626122 10.02622720135391 8.863854155541748
