16
Energy = -86.30500405 eV
Rh 10.600257483509134 7.700411661860863 7.255523606872607
Rh 8.549184564873755 7.614082879376308 8.550362599958955
Rh 11.745973552134389 8.062115736297212 9.32762867995309
Rh 13.080607251977755 9.869008037498087 10.38250992811846
Rh 9.852837264233512 6.913666127158008 10.49503759055659
Rh 9.953213481675373 9.668866833266438 8.852581982906687
Rh 11.562901191447036 8.397513577370125 11.854752968359856
Rh 11.508722830261332 11.48828846730737 9.416990132450778
Rh 9.321196979489267 9.241847740314775 11.14602062153604
Rh 7.506494757974138 10.024927988735078 8.386471617170049
Rh 11.112756035956625 10.977369314013812 11.708020447002873
Rh 8.988518504690719 11.973650598102049 9.064377356801753
Rh 10.651208392851277 13.740073182598023 9.730515432477796
Rh 7.006718222469619 9.719956671005695 10.711907443679351
Rh 8.471096287960654 11.620388737499953 11.314473267071861
Rh 10.255767427938387 13.207429438012577 12.020317001371055
