15
Energy = -79.69601733 eV
Rh 8.85433391542507 10.844970880490115 7.238559676660989
Rh 8.908546693172465 11.668886891023867 10.426216575555587
Rh 6.952486954400269 10.501717865730036 8.94382185451813
Rh 11.03327827682456 11.05117110141686 8.731194285663099
Rh 12.553519648383896 9.749773625818833 7.281272624643341
Rh 10.325785402732958 8.710316071969238 7.130265564447141
Rh 7.822527422109825 8.401604228230779 7.474320328567876
Rh 7.501409191453543 9.668388125106919 11.300078299439352
Rh 9.210537628048137 9.34008154239153 9.386255848235926
Rh 11.659350657942216 8.509038309883806 9.34568623633317
Rh 7.399766229140529 7.530957207874896 9.974150682674066
Rh 10.949010065469503 10.219249346260561 11.11524021302777
Rh 9.236172542318974 10.45488576909894 12.856371365688533
Rh 9.516421234760752 8.056228020054476 11.548066958603684
Rh 9.650702377366576 6.835333146552359 8.855839341897422
