18
Energy = -97.61402307 eV
Rh 13.010429322363393 10.25820114328843 8.546207558000729
Rh 12.827543464410615 12.685990507843321 9.711274929899277
Rh 12.471890908799123 12.592208382598558 12.315422988268095
Rh 12.47764920711957 10.510422110163145 10.92536005762012
Rh 10.902578736073254 9.017490835348514 8.398824852310337
Rh 10.94722379401833 11.692458719403277 8.35357747258822
Rh 10.712012369055167 8.809136764649967 11.09150160788703
Rh 10.4495270873298 12.373790680302148 10.774056711236776
Rh 10.726844309094618 10.827766252328283 12.789057555290574
Rh 8.314997124520696 11.009099029584934 11.957448292380628
Rh 9.849112236392603 7.04262763204804 9.596336749051703
Rh 9.16046079511264 8.9119999400882 13.108117464798275
Rh 8.662650032610973 12.60933807655316 8.895934658306352
Rh 8.992953851825655 10.534741422726947 7.2693354003155575
Rh 9.21005116133157 10.334701827971609 9.808703516081644
Rh 8.055317934766684 8.385084702388701 10.95574341227747
Rh 8.186527891754626 8.458108759418309 8.36943957703325
Rh 7.488988331177536 6.407668531596248 9.631876021829807
