17
Energy = -91.8952981 eV
Rh 6.594890918804018 8.739476356544273 7.998905127754946
Rh 8.578383467425313 7.2801247709365695 8.410749152858456
Rh 8.777179001989051 9.222928293888572 6.6945115770425545
Rh 6.996758381886959 7.574320944859978 10.349491858672799
Rh 6.351910451401683 10.14135482369066 10.232073559131582
Rh 7.64152160604581 10.994072330404494 8.24083147673136
Rh 9.90693496357168 7.457308461020896 10.652516629535434
Rh 11.100659297524212 7.661942040366839 8.421291678035793
Rh 8.334156528559502 9.328289599669565 11.45885389632
Rh 10.041889798798584 11.856776026095211 8.237582525711156
Rh 9.569159867442005 9.540942809773156 9.093619912122552
Rh 8.844499307119126 11.649266326637578 10.469198300283749
Rh 12.396715034961916 8.224900785028005 10.536582763235337
Rh 12.018429829698997 10.14985189444772 8.926806563895607
Rh 10.753606950724052 9.937388222222527 11.357924524611017
Rh 11.40367477297104 12.149962981483297 10.362451335462518
Rh 13.244524948198588 10.555050405680834 11.087536416478452
