14
Energy = -73.02751623 eV
Rh 6.854481997628736 10.908504862949899 8.47948034037763
Rh 9.194360154176401 10.148627827216512 8.174809498910056
Rh 10.78782279726938 12.104279894708311 8.327193865012267
Rh 7.252072090487619 8.540805131355915 8.481794152345676
Rh 11.84454841690451 9.950766266313282 8.312064036229204
Rh 8.366032316780807 6.574314675287639 7.80568539792543
Rh 7.673257714248163 9.880742650189868 10.594008714921209
Rh 9.641163694378172 11.580853376280674 10.366415722409064
Rh 8.60527903773172 11.168687780045428 12.452289204907043
Rh 10.43083598659415 7.669773986530993 8.24367917863597
Rh 9.257267627128403 8.816072210586066 12.291332536377242
Rh 10.499168028349052 9.336091716014144 10.24409487560878
Rh 8.728682573285461 7.429959346716593 10.171276325453118
Rh 12.772963443132076 7.786767587126387 7.938546210205337
