10
Energy = -51.03310499 eV
Rh 7.783139379100531 6.95865869711467 7.584504519453449
Rh 10.190794636733314 7.113635958246637 7.537698127902611
Rh 7.680254942494176 9.312242991427793 7.794907924088481
Rh 10.05443139878666 9.476463089778056 7.821952437795287
Rh 8.805829949200417 11.563058497307884 7.538242543521551
Rh 7.872943992981828 6.795922104195907 9.987420489198707
Rh 10.26768290383803 6.875487663985107 9.920644116384743
Rh 7.8492293849124515 9.170056870033358 10.160069150337636
Rh 10.208149478903115 9.23167137661155 10.177028071356457
Rh 7.134970578219684 11.32273277286404 9.297462630743512
