10
Energy = -49.75492746 eV
Rh 8.256110573607273 6.4690326481544 7.016884286082969
Rh 7.210624322507748 8.605479809077437 7.4429553321455675
Rh 9.64824746767408 8.524360027468498 6.7606754600862065
Rh 8.810533420607573 7.739585027632558 9.14416998304333
Rh 11.054315203357126 8.889631250646406 8.843843618594343
Rh 9.871841374006944 10.79562252494162 7.61533583900922
Rh 8.287045761273104 7.097556479804562 11.273224024255043
Rh 7.4836274360379065 10.814138219924226 8.228713850676542
Rh 9.078805704373377 10.021508952230052 9.925652714606745
Rh 8.553925270605976 9.305600364929496 12.04175418748847
