17
Energy = -92.13607348 eV
Rh 11.139024569215218 8.147891388308286 6.637497414793392
Rh 7.589766238389017 8.498724404078972 10.612407508663559
Rh 9.941730940871953 11.790062298511373 12.352158619873597
Rh 9.464962171273166 9.475643201361335 9.219049037073091
Rh 9.085763008966163 9.395024250296133 12.496430182725657
Rh 7.3234822328127995 10.388986322080937 8.519822847385095
Rh 10.00763754737675 7.524258462527259 10.876680372239841
Rh 10.146188077387345 11.948656120287373 9.829650006948468
Rh 9.168299849646079 7.49948706295518 7.837921902638723
Rh 12.327543274443329 10.823715336265106 9.027846122796566
Rh 7.99190895046457 11.024929340687724 10.890739456826283
Rh 11.163999663687816 9.880670374917425 11.08796483510905
Rh 11.736197396681504 8.298699774583918 9.077799444345786
Rh 8.885278051020242 12.039685038295096 7.676116111832635
Rh 10.679036114791604 10.437817554650834 7.271344546264093
Rh 6.781665709401876 8.004530070811091 8.247348881577059
Rh 8.208278638739403 6.2594248311985075 9.695969262981777
