13
Energy = -67.99591662 eV
Rh 11.8356377549916 9.436193630050823 11.060300914282136
Rh 11.309731818234818 10.185746224856617 8.839529052684526
Rh 10.560340831980435 7.844809032347826 9.733147619416913
Rh 10.789192197944695 10.509524668855198 6.513945596953768
Rh 9.425525050219251 9.933602841914057 10.677031972602974
Rh 9.909684070149877 8.396558488362572 7.311866235309861
Rh 9.09312307338461 6.318670849646897 8.47574112532982
Rh 8.819175881742447 10.522527909700472 8.110665996533683
Rh 8.074716941780604 7.6514059493516084 10.369315855380092
Rh 7.662209215044381 9.216522938390328 12.166421299892043
Rh 7.491995553749277 8.24645573042057 7.982198307819332
Rh 6.9507718086027435 9.930695021047656 9.845289477618898
Rh 6.499778754191226 10.420957902378365 7.428602080471994
