16
Energy = -84.81748722 eV
Rh 9.53129049493946 6.916608667175537 11.54316633737737
Rh 13.284378382193108 8.178308485691906 8.04552560384317
Rh 12.547065241742354 10.501401691613525 11.62411031147375
Rh 11.909820420677159 9.392399648127336 9.54005110859038
Rh 11.019516967159324 8.305858218336395 7.330939858761156
Rh 9.577393825128382 8.08777461296083 9.418227407369494
Rh 10.434942861087768 9.247240033000915 11.643827601105501
Rh 7.944038651847759 8.785335015638356 11.421686146258171
Rh 7.465801116945617 9.63296203023353 9.085250037056237
Rh 9.83969530650549 10.419991672036439 8.145459343466946
Rh 8.714156156654125 11.136267504072112 12.070260984425197
Rh 8.546699814874573 8.501657966355461 7.1577653392080185
Rh 6.431698292052083 10.807073198265165 10.999976043763644
Rh 10.704547608048925 11.536883792538402 10.398495301571877
Rh 10.10064788229206 12.821285007705558 8.32116945638222
Rh 8.28672731970002 11.955104134864024 9.700039869255097
