11
Energy = -55.83759004 eV
Rh 10.320058 10.320058 12.7194466368589
Rh 11.59057801413408 11.596582663338568 10.897501687441343
Rh 10.320058 13.751287196105256 11.059205446257753
Rh 9.049537985865918 11.596582663338568 10.897501687441343
Rh 9.049537985865918 9.043533336661431 10.897501687441343
Rh 9.062377896333043 10.320058 8.645122483058815
Rh 10.320058 12.573527992272375 8.901264491910512
Rh 11.57773810366696 10.320058 8.645122483058815
Rh 11.59057801413408 9.043533336661431 10.897501687441343
Rh 10.320058 8.066588007727617 8.901264491910512
Rh 10.320058 6.888828803894743 11.059205446257753
