13
Energy = -67.69507058 eV
Rh 10.455884 12.817445497337502 12.706349537688652
Rh 9.222433991144893 9.142934262020308 10.664160047619218
Rh 9.222433991144893 11.768833737979689 10.664160047619218
Rh 9.231735929047122 10.455884 8.426381107538191
Rh 10.455884 12.703579804242583 8.60620870464805
Rh 11.68933400885511 11.768833737979689 10.664160047619218
Rh 11.68933400885511 9.142934262020308 10.664160047619218
Rh 11.680032070952876 10.455884 8.426381107538191
Rh 10.455884 10.455884 12.570752334088736
Rh 10.455884 8.208188195757415 8.60620870464805
Rh 10.455884 6.772119436040727 10.61061038784198
Rh 10.455884 14.139648563959277 10.61061038784198
Rh 10.455884 8.0943225026625 12.706349537688652
