19
Energy = -103.98758535 eV
Rh 6.973089837015002 12.18606862907416 11.036600439209687
Rh 11.041234351575534 12.094988266511008 10.153955953341221
Rh 11.302184261870138 9.488102617001076 10.082137667446336
Rh 9.027907140380085 11.664872990036873 7.306076131971056
Rh 7.1833510106567315 10.747417525236541 8.999946701056578
Rh 10.780933700820226 13.359774577321105 7.980946026011287
Rh 12.355449450144988 8.316167937392533 12.105921295580718
Rh 12.251843433881008 10.978389029325259 11.934665642095437
Rh 7.053071919244497 8.302590864172222 9.168948653581616
Rh 9.23856970798084 9.386405150696039 8.323322465133973
Rh 8.987803495819774 10.754439477404823 10.744704632396669
Rh 9.349942386033742 6.8750553617055505 8.521809062585803
Rh 10.238018475091765 7.039009177525005 12.597656676748327
Rh 11.187432932674911 7.005009258060272 10.233541492996977
Rh 11.435084185479829 8.212449269336465 7.891922792600797
Rh 10.211811359451248 9.608211326108721 12.535064029384793
Rh 8.736458756924586 12.94387553541878 9.485600425377001
Rh 8.925634216142212 8.165233913361323 10.737559173309968
Rh 11.349776060688724 10.864746063668404 7.915088208703794
