18
Energy = -98.52373977 eV
Rh 12.485041779524588 10.430911490342059 9.703540906423058
Rh 12.3098368866771 7.892382038533838 10.798888362792608
Rh 11.235996536665533 9.82689633125927 11.868306302956098
Rh 11.702343781430043 8.369045428929985 8.394234993743567
Rh 10.794115090270903 9.55026279800872 6.325283643430345
Rh 10.812008334686126 11.260416380894947 7.972448960593101
Rh 9.250724265723994 13.103314444018102 8.54841900624566
Rh 10.00676723557503 7.147151959351921 9.876330994461382
Rh 9.871892562466355 9.627257879200476 9.728428040549147
Rh 9.134363932450135 8.37413674755126 7.706558806111855
Rh 10.418816329096185 11.948365331439959 10.563538344550699
Rh 9.307823709464161 8.29073940461361 12.157412429734583
Rh 8.988769536389702 10.853692068839576 12.469307399550429
Rh 7.61131656363077 9.573606602614966 10.687982530976779
Rh 6.905341321793388 8.381603439111181 8.578387794915333
Rh 8.175957492153982 10.792227431703333 8.229488880708178
Rh 7.882801272874839 12.077451804185227 10.413995062038222
Rh 7.653784015060153 7.045265435204092 10.554425232095316
