18
Energy = -96.81586467 eV
Rh 11.065287861937243 9.024386950907992 11.987294387749303
Rh 14.562485445342386 10.96104349635191 10.343174640472883
Rh 14.130191615894189 8.957748790615163 8.855879666322723
Rh 12.524904739553817 10.859943689042046 8.769415770263993
Rh 7.182784107560551 10.529087048837907 10.242371089779859
Rh 8.088671736855714 12.831370936357603 9.455578620251028
Rh 10.254303254952902 10.121594569861093 13.949313218961267
Rh 9.209176577581363 8.746470110013362 10.220720651173048
Rh 10.988320110163409 12.226048945975615 12.899512889981429
Rh 10.117161869766385 10.280391998631766 8.579853290057168
Rh 13.55855547698917 8.813972263283498 11.302833613286602
Rh 11.70962865624523 8.52453500530918 9.559872112337878
Rh 7.944679393113588 10.806797558942971 7.834395151755352
Rh 9.134066302865849 10.836417241024819 11.859361533241042
Rh 10.258217914455026 12.05715839286464 10.126308716084546
Rh 7.299756639282618 12.447042698241539 11.777617698906562
Rh 7.342037850706365 8.53198806449657 8.71340854527044
Rh 12.297380408721558 11.069100215449668 11.30949921935667
