11
Energy = -55.46048159 eV
Rh 11.417881577430862 9.613363908732305 7.52887499265742
Rh 10.544774065844166 9.002245077416921 9.726891019219298
Rh 9.729741954015589 11.127569140890541 8.431392781538406
Rh 7.346054083654186 11.781377520312043 8.705303502982588
Rh 10.636936953764295 6.519706976866423 10.140585568696475
Rh 9.77934766973198 8.316048411445562 6.486460493443008
Rh 8.89343936850048 7.6683654989534356 8.663780323300154
Rh 8.865085862417546 7.623954312237619 11.258014459430937
Rh 7.989973689224271 9.748453068734863 7.352278024064413
Rh 7.031676543453003 8.951960421149325 11.975171994871845
Rh 7.9956109145776075 9.834545320270044 9.968871377572901
