10
Energy = -46.06216528 eV
Rh 16.14714435419859 13.034633703351535 14.132942210077367
Rh 13.670024591004932 12.402985109120268 14.449741223117687
Rh 14.939978623330132 11.538741364999536 12.41978213796043
Rh 16.806360313877864 14.911291311753345 12.566680462754864
Rh 5.311511396449621 13.072759150129466 13.57791762561643
Rh 17.26297451008707 12.543354382996638 11.894311426695674
Rh 14.365586209136712 14.60710663565767 13.395175997489432
Rh 15.11967006117158 13.660506296254297 11.131120843330049
Rh 12.861121184737355 12.963647688962475 12.155347607642339
Rh 4.277893488889573 11.156559096510321 13.648737028424895
