10
Energy = -49.5350097 eV
Rh 6.999496769076071 6.896171986230142 10.245964540884717
Rh 8.359102266449865 8.65870409243981 7.055684437708613
Rh 9.1229596494497 7.936560380069627 11.009318534576138
Rh 9.040310938171851 6.860075157800182 8.804992312392812
Rh 11.23382748818913 7.294953554020146 9.86010130608245
Rh 10.044638109566865 9.271599079040776 8.974273426120202
Rh 7.462348980973252 9.133259461027105 9.391185314181744
Rh 6.321374391760507 10.099126538796083 7.421763737431056
Rh 10.362029903975198 10.174631923939057 6.687373546849633
Rh 8.505809985180532 11.082938981978277 8.039254920013057
