14
Energy = -74.66955742 eV
Rh 13.220290774090595 12.390874111894043 10.381553894452114
Rh 11.083921 9.779038566200713 11.857153075484888
Rh 13.244036333513376 11.083921 12.573916555453682
Rh 8.947551225909402 9.776967888105952 10.381553894452114
Rh 11.083921 12.38880343379928 11.857153075484888
Rh 8.923805666486627 11.083921 12.573916555453682
Rh 11.083921 11.083921 9.530937593578084
Rh 8.947551225909402 12.390874111894043 10.381553894452114
Rh 11.083921 13.544215963508627 9.67045031926985
Rh 11.083921 8.623626036491366 9.67045031926985
Rh 13.220290774090595 9.776967888105952 10.381553894452114
Rh 15.16497881644732 11.083921 10.987820172718193
Rh 7.0028631835526784 11.083921 10.987820172718193
Rh 11.083921 11.083921 13.93906065912031
