10
Energy = -51.09901239 eV
Rh 9.8860778966852 8.298547108652732 8.389410300894305
Rh 8.539581641183604 8.762956902615052 6.298230795254778
Rh 11.154744280431698 7.906220385822699 10.550529775553914
Rh 9.562182968255172 9.323796036240797 11.819560814575595
Rh 8.669886940854926 7.3822445687493845 10.453455093088227
Rh 10.735422318448224 10.287326511030518 9.780870681469702
Rh 6.95278610685465 10.208426900989918 7.565302636443434
Rh 7.357644870001331 7.827367536325519 8.333075814770034
Rh 9.437969346438344 10.713441961701465 7.649571678281747
Rh 8.216097124612686 9.805543490242115 9.721369450600752
