16
Energy = -86.34370319 eV
Rh 12.59049479328396 8.221966042046665 9.517387382907556
Rh 12.855565734558306 9.928377868860414 11.166529681183246
Rh 11.354307550012056 11.444197894517051 10.044642068152218
Rh 11.013404695544804 9.672237147179754 8.369481433816675
Rh 9.70668471759514 9.681351213282673 6.247707185597196
Rh 10.306420464876632 7.870905837118747 10.216912771112954
Rh 10.48485684751381 9.807816283834754 11.764495339624592
Rh 9.477374518519943 11.646306052475255 7.887537263061738
Rh 8.340828752508816 6.437770688278875 9.85266558511876
Rh 9.201036520214974 12.584896550117346 10.310988987515373
Rh 8.60153756512041 10.196089131497523 9.750399359020475
Rh 8.903000581304115 8.100380677641036 8.019177643114343
Rh 7.455457470699775 10.159707445187895 7.475479934696364
Rh 6.798196694431452 8.443413594422443 9.41302109601667
Rh 8.185525298814573 8.458146590707239 11.52816997570432
Rh 8.403583334321993 11.065862125200908 12.137177459223862
