17
Energy = -92.22953231 eV
Rh 11.292404702862964 6.086161057987677 10.88256945753514
Rh 9.684988092108718 9.682572301408655 11.410300227136814
Rh 9.954702264239529 11.989054485328493 12.400566751997182
Rh 6.63610298310653 11.46540873410857 8.803247954632075
Rh 12.136272935558049 8.28091463159507 11.140877108894603
Rh 11.63897464864118 12.522436990936646 10.736831354178053
Rh 11.32813947385235 10.245193460356072 9.747566199675058
Rh 8.290833242520435 11.942382778168207 7.172478115709301
Rh 9.49859052992971 9.892731246992476 7.803152074587732
Rh 12.025394165773095 10.451276828836908 12.328913205934496
Rh 11.005737277608237 7.8823159980392585 8.820380400543154
Rh 9.414712580298165 7.627089343550157 6.974994718922386
Rh 9.300340185841803 7.411100163231479 10.412769678820862
Rh 8.305960290318055 11.67421773777052 10.553825421963605
Rh 7.698609338052747 7.125584638284434 8.56623544550049
Rh 7.84371709054387 9.405646792731108 9.391634015344057
Rh 9.934668452798753 12.18693218300792 8.950995079353147
