12
Energy = -62.38864052 eV
Rh 9.416288272063397 9.44039798472577 6.6736534362844635
Rh 11.799340419103194 8.49612809986554 6.8857376792821805
Rh 9.744787063181896 7.214524613025761 7.732478317096112
Rh 8.349690380468955 10.71056456534277 8.700348121094308
Rh 10.965430415563342 10.43284664486979 8.318717929269118
Rh 7.513140962801953 8.436384454640208 8.072115704840838
Rh 8.837498856704263 7.830110962149998 10.105719709335329
Rh 6.684101065678255 9.329893028279292 10.239019903976295
Rh 11.327207929176126 8.205672215715815 9.365710493116737
Rh 7.853656456939776 11.292340161471186 11.239770535461398
Rh 9.880446240272912 9.959581473302393 10.56060418321488
Rh 8.185520743767778 9.092396950365691 12.269139282165174
