19
Energy = -103.03081452 eV
Rh 12.403080683951199 13.807115734367391 9.775294689406726
Rh 9.266279783149209 8.872113526940892 8.674474084557485
Rh 10.029323472340876 8.549449446760736 12.603054025821166
Rh 11.679155566802452 9.73235740580184 7.913099994298387
Rh 7.872545102328838 9.110038566612705 13.507628015304553
Rh 12.027260290212428 9.989803636027652 12.578360858393241
Rh 9.497403184585416 7.096693307337443 10.530417827994349
Rh 11.208014038673223 8.901576556058535 10.219551556940148
Rh 8.248281789744874 11.051575831245636 9.49511085717213
Rh 12.184038450226266 12.20832175617109 7.944104021680942
Rh 9.725913365785084 11.215751834138867 7.4967851180692255
Rh 7.927883568180499 8.982010178961824 11.015497310415885
Rh 13.585155120541105 9.202759125555314 10.736962034469967
Rh 9.838878862863703 10.839860307463935 11.406316963785185
Rh 10.221631167843972 12.64550949407665 9.600489495015621
Rh 8.06773578478868 11.42736519076103 12.907455054247743
Rh 6.525320769038364 11.092657607492615 11.119920213345807
Rh 12.239529414269771 11.380514617324382 10.444382789917084
Rh 13.922470604101333 10.46402121225089 8.654156904576455
