11
Energy = -56.08724037 eV
Rh 9.822010551473834 7.046976987938987 6.922985759426211
Rh 10.895203282312748 9.120783139470841 7.619804376772282
Rh 9.266144061476433 7.936177781361337 9.170909033201017
Rh 9.925103631999514 8.073362985111078 11.568441812512717
Rh 8.834073181776695 10.328100006694081 7.191545316628732
Rh 8.45353586913879 10.169646015193338 9.625339558140425
Rh 10.668729287444574 11.116675280787517 9.001111057282252
Rh 7.548199027273819 8.220837028040007 10.969353420114656
Rh 7.69683123670913 8.207265917823246 7.220522955072617
Rh 6.295473170737286 9.035864762839859 9.014406992002504
Rh 10.199282031625117 10.411203408607347 11.343871618717149
