19
Energy = -104.00281676 eV
Rh 11.081565807902676 7.161770694141532 9.863626212074266
Rh 11.718753083337257 9.328964115896104 8.58434818585453
Rh 8.454287017668547 6.473246714226068 9.766408667896812
Rh 9.398227750657355 8.388825172676203 8.454901008297465
Rh 13.46008996097795 9.900721704244093 10.38267898818898
Rh 11.144566046657522 9.344493495533209 11.173215412127648
Rh 8.878109845871501 10.29836117712722 7.127832968157103
Rh 11.189611045640778 11.028154647263896 6.805188728485915
Rh 9.384333779270744 7.626017397796676 11.758757156117197
Rh 12.59945099749559 11.726537206963819 8.840346834117645
Rh 9.50366260233617 9.961767946343388 12.956284160629538
Rh 6.963902185484501 8.438596542315048 9.33084927941269
Rh 8.55323114669553 9.704219856808518 10.586704803555541
Rh 10.048860767860416 11.396188555602444 9.075813046159395
Rh 11.821744397001003 11.68757330711454 11.225673419078603
Rh 6.651346889232103 10.466426321517725 8.04800887144378
Rh 9.298006731708677 11.992810660773374 11.495739715045936
Rh 10.8789834404992 11.939234592084633 13.44926393248443
Rh 7.655254474878218 11.947572324664891 9.688492980031555
