11
Energy = -56.48738597 eV
Rh 11.345404682907489 7.911382138453008 9.182262335911393
Rh 7.365499771518028 7.325991938362725 7.31673712372152
Rh 9.27803896804627 6.537252422809089 8.876393307761155
Rh 9.44314295506236 8.678050072243314 7.54823598547292
Rh 10.596108338019562 10.787077069706038 7.689549285264967
Rh 9.568952023293614 7.712305956251201 11.094723798781008
Rh 7.62222125628732 8.376174596715309 9.579622693213718
Rh 7.25173892696983 9.882447876311325 7.654863857033333
Rh 9.909110144153406 9.812715814470058 9.819354004642252
Rh 8.440734547526802 11.516481221410421 8.879600345842118
Rh 7.931708082993572 10.239004181343407 11.119177067157455
