18
Energy = -98.17723611 eV
Rh 10.33957347505575 10.957418304455855 6.925666134785085
Rh 10.426570350781718 12.469613667884138 9.041237504393816
Rh 11.047776564520118 8.745990206027395 10.568117395452937
Rh 11.791294070798928 9.4342857177036 8.21667773176278
Rh 11.999988210725723 10.072298456964814 12.47595030128024
Rh 7.162881476038296 10.834623168639531 10.102069743220756
Rh 8.639564947104322 9.069539649460724 6.939703907458284
Rh 10.421898933760149 8.0407081669971 12.880491286131495
Rh 8.582699987446126 9.390396350007236 11.553671756215252
Rh 9.707441502621961 10.347424118109005 13.631401120157905
Rh 9.153574402231756 6.999208568911905 10.772506151026207
Rh 10.008993486943158 7.646800061108102 8.435411850154509
Rh 8.407744724985275 12.870488856387775 10.425034710739531
Rh 12.573695320093961 11.813387617705747 7.785787050287132
Rh 10.118325307288565 11.422833647803712 11.423959464601461
Rh 12.31545643485115 11.00846148066418 10.121609775372882
Rh 7.618071381867447 8.418454189221583 9.308266723321754
Rh 9.409039382918344 10.2016316822411 9.095550325410919
