19
Energy = -103.5153453 eV
Rh 8.712698441913894 11.290324353235457 12.8952541523534
Rh 9.894433003805323 8.327271819939131 11.772226806796732
Rh 7.320143024319425 10.361666315184847 11.049477553315684
Rh 10.222384362128228 10.960406747100926 6.8212675962814036
Rh 9.700528986616977 13.18865492117985 11.709033267681631
Rh 8.002984512669416 9.000029372655789 13.04697424088192
Rh 8.084255452699685 10.540113199374474 7.766101527018227
Rh 10.880551295869962 12.465501401000814 8.654343188450923
Rh 12.97845161688972 10.437730178892034 10.56410954426498
Rh 6.392709950856614 11.510819117560485 9.185683571728578
Rh 13.534500632700585 6.878090867076237 10.511648856404074
Rh 10.554307624868915 10.72144614838672 11.371451897579036
Rh 11.179049433071674 7.673380163713715 9.651936852483972
Rh 8.79761467226773 12.091658905461546 9.744057682504234
Rh 13.480482979836392 8.675335510209452 8.908075270551125
Rh 12.343555746145302 8.457268321571842 11.859411744507797
Rh 12.055812396237705 12.73528939440954 10.747842455665955
Rh 9.003948449773409 9.341966374463894 9.631269363145856
Rh 11.269136957370806 10.003776922303102 8.824786241597938
