12
Energy = -61.13919756 eV
Rh 10.844160293899671 9.990789333225209 8.007090018852045
Rh 9.405972464093097 7.856165151330059 8.351133875459738
Rh 11.212519045730632 11.311191990781277 10.127796119758141
Rh 8.94433217162339 10.512304436148028 9.845468527807583
Rh 10.429323837179593 7.527242841844661 12.141935398157365
Rh 7.388673893542444 6.63958280375504 9.02138799967784
Rh 6.935370972327778 11.401901540485914 8.781432625042433
Rh 10.001721514273422 8.724040512586951 6.112461375172871
Rh 8.569381110286528 8.093480196312045 10.750804071974313
Rh 6.844704932972292 8.99833770121953 9.166009382172858
Rh 10.980238514758819 8.878574127050875 10.24727151369444
Rh 8.324768932039175 9.945136858855788 7.332831338757387
