13
Energy = -68.28345175 eV
Rh 9.519747005616312 8.204094468461795 11.652132472111791
Rh 9.336607751214476 6.923988889186862 9.300878433333116
Rh 8.244379459937864 10.496353529094709 11.391491026016627
Rh 7.975588101784725 8.476292333418899 7.583574678972323
Rh 7.289200258532509 10.662122939611406 8.889302862817688
Rh 11.60652059064063 8.203006161232613 9.960746246969524
Rh 10.654919591595565 8.369605685964553 7.4566290266834665
Rh 10.921486556467258 10.385573819354796 11.266915756849372
Rh 9.37757957921313 10.657213676180463 7.197549216698535
Rh 9.560427321831531 11.938488077354963 9.551033363113739
Rh 11.632280689110075 10.491297560123542 8.669482522428032
Rh 7.2637520769314765 8.374951998284226 10.181479010906365
Rh 9.44882533514998 9.433564169624741 9.425512868631296
