10
Energy = -50.99998389 eV
Rh 9.262242110840436 11.403313976221307 7.8769694536641985
Rh 7.563516161624816 9.550788203182096 7.333332873666025
Rh 10.253765119546355 10.121409301980142 9.72943575875803
Rh 10.585526265800999 8.280222289329277 8.233129132214454
Rh 9.827718367417873 9.504192774793326 6.38645479601949
Rh 8.272817186805272 8.04817283410647 9.121883067036983
Rh 10.27347103667622 6.800928580599073 10.086663735961242
Rh 7.728509434153179 10.480318514802729 9.747464002533043
Rh 7.731998016342349 8.79221574212197 11.489527835658581
Rh 10.114147094383286 8.632148576454263 11.608850138078635
