13
Energy = -68.71305868 eV
Rh 7.218989573638883 9.729399726965163 10.022776825776162
Rh 7.802748227686965 10.775622634774525 7.75579654455633
Rh 8.286820297669172 7.448629918072549 10.74192709684676
Rh 8.838197687319235 8.519206916892873 8.473470982410737
Rh 9.468249838495312 9.367089433369337 6.171517396364316
Rh 5.438214663233514 9.799457794361928 8.216805708473252
Rh 6.406278205315916 7.534078334227978 8.952584006346688
Rh 10.160539442086076 7.008003712640042 6.840971105076724
Rh 10.159856639850913 6.48379983425098 9.302976981483
Rh 7.871907858978938 5.341071188770625 9.416694168941593
Rh 6.9778455391221925 8.644848054775755 6.599204768137356
Rh 8.436925054481957 7.322034570489637 5.009049404302321
Rh 7.776270670022026 6.26975804312685 7.175074983436055
