15
Energy = -79.76916009 eV
Rh 8.900826940285286 9.64627932861769 11.221439686360046
Rh 11.452392964436163 9.918697808711395 11.610340044438892
Rh 7.826129595953999 7.227242003191726 11.296472376698729
Rh 10.39729174712786 7.654826416224807 11.216456213061953
Rh 6.695101196111022 9.079853258826542 9.925056778852612
Rh 8.956803378659709 7.728158249406463 9.126989533452488
Rh 11.1335881141517 9.180502522303215 9.251179057930505
Rh 8.515857601496098 10.389619537439662 8.787515783198431
Rh 12.571084438599327 11.209232209545945 9.504993397455682
Rh 10.208944447916306 11.601256357430591 10.163473798509523
Rh 10.671525792072783 11.171569237498417 7.677545542752957
Rh 8.491457884548666 10.718323343711427 6.287735731547847
Rh 7.2869805599229105 8.628001084289362 7.438902432793774
Rh 9.885899104599911 8.79718628763974 7.026827155944315
Rh 6.63462117507878 6.677757355163167 9.093577407962753
