15
Energy = -79.14833004 eV
Rh 12.891822994988827 10.467149144950827 11.152855628451332
Rh 11.306676306455696 8.61944058690759 11.031653813532966
Rh 11.497455879445631 10.194468699408805 9.142078792194756
Rh 12.07929169067632 6.855526413517845 9.563849736878984
Rh 9.96209772306654 10.299867630254209 7.035599651757271
Rh 10.55607446736496 11.20847681505857 11.36888203171304
Rh 10.824509448713773 8.132987332033073 7.970287509443539
Rh 9.58443043719042 7.041039028018561 9.91566282477699
Rh 8.750882941257466 9.254655557180808 10.96085963424164
Rh 8.356959137685923 8.87076650635538 8.45245503471919
Rh 8.081930415353023 11.484183321730196 11.535991371629212
Rh 9.235972828755518 11.278509489346973 9.229329923396412
Rh 7.369415190542533 10.913543748309845 7.601956767917009
Rh 7.203524604790406 7.568028117309084 10.159235573472282
Rh 7.021649530047929 12.381894257725124 9.528997394509219
