10
Energy = -51.15422316 eV
Rh 10.375108648405849 9.843780730708538 10.361462490107435
Rh 7.435481422764518 7.982356367166001 7.459279839539051
Rh 7.549383008943473 10.488079684376801 7.010263102257846
Rh 9.830929344506185 8.170123816257341 8.451580276380898
Rh 9.329952383404981 9.054367529507958 6.126649717126767
Rh 8.485315891265996 8.75923375649056 11.691034102164307
Rh 7.987547809401575 9.648131510617818 9.366946550005393
Rh 7.927217135579098 7.09284452424241 9.843098738734191
Rh 9.898238296252432 10.718588833727665 7.973790488782926
Rh 10.273027438892935 7.334694626321649 10.808096074317614
