19
Energy = -104.08031076 eV
Rh 9.95403825839142 13.389253906617865 8.749927752123826
Rh 11.692950288794579 9.472080436281534 7.4604661300897295
Rh 9.379855700284232 9.258199101919063 13.34968593191249
Rh 7.152329152352497 10.186912494884714 10.896191383400222
Rh 12.837859396378047 11.22195499878351 10.8922112948764
Rh 9.421763577865862 10.981994737579003 11.502955336834335
Rh 11.435608249823908 9.66349639305209 11.983650270725288
Rh 10.632427613590798 7.266924492090889 11.941460803932276
Rh 11.336357584605029 8.50283208765746 9.782088868518798
Rh 10.945627498595105 11.068278662166835 9.206510335413283
Rh 10.989831747983182 12.842104928378333 10.991895813310018
Rh 9.346244022746445 8.795471393049665 7.130116053770809
Rh 9.51761281538979 6.62338121112505 9.759564198605922
Rh 9.72904730584788 11.23365389214284 6.977207030024955
Rh 8.308385516616775 11.49352766284706 9.003858993239662
Rh 8.929670583755897 9.107898797280248 9.459447558729144
Rh 8.271509148180249 7.995277769349956 11.576393777886052
Rh 10.940140091184375 6.986575363541921 7.753746614038113
Rh 8.407372893662716 13.204361286385877 10.826967920665512
