11
Energy = -55.80409725 eV
Rh 11.263392810235796 7.989130777474578 10.960539067794231
Rh 9.639250858101127 10.665732289116711 7.5609360814060445
Rh 9.966393834964364 10.126990265883673 10.845781346691195
Rh 11.022379045310092 9.242319029714963 8.8065652665098
Rh 8.782669818292243 11.770419073359943 9.53896374204777
Rh 8.066056351593328 8.656640058648337 10.663864689866886
Rh 9.589206713291741 7.242918867172283 9.381528690072479
Rh 7.611449730253849 9.780410768880788 8.540674407734247
Rh 8.198563904521091 9.516401781057784 6.005437243995559
Rh 7.134607746732742 6.692806538001694 9.528762385963603
Rh 7.986633558133692 7.606342627904319 7.4660072996512294
