14
Energy = -74.40242922 eV
Rh 12.250990825562223 10.458913692276234 10.083861074506952
Rh 8.006937009468803 10.201868500203705 12.444021371572605
Rh 10.14324690199971 10.858387278220647 11.429344012600392
Rh 10.51557187432382 8.625989056436124 10.619306246792654
Rh 10.289022331294083 11.548204258491358 8.888571657727265
Rh 8.021892597312888 11.200379841643342 10.182561323574456
Rh 8.164663695732113 8.030496277075697 11.410576708927897
Rh 8.079662984188424 12.326315998058291 8.04350994776271
Rh 11.152246157974965 9.264467764992371 8.207348706339948
Rh 8.306697345646311 9.028228728352948 9.231763745560768
Rh 8.906028633929319 10.164062342457305 7.185552414461023
Rh 9.766881909472609 6.25956507373529 10.720323791280396
Rh 9.722345304256404 7.144574873073079 8.46802481865418
Rh 9.972050811786486 8.12412122454564 6.291409951088904
