17
Energy = -91.95955485 eV
Rh 10.477106738549 13.212559283680784 10.411166973017716
Rh 12.025891734794858 12.871833832314403 8.602405806846024
Rh 12.973926044433968 10.929661759993445 9.603778364205617
Rh 11.334918009922822 11.249685189832059 11.496976641417112
Rh 11.060633225834959 9.432417428731034 13.211657458922373
Rh 8.85052968398769 11.942942415676447 9.185826579156823
Rh 12.00174603520938 8.80510318561946 10.747570730359353
Rh 10.432122480301123 11.570750124803526 7.331352821830253
Rh 8.91041356204855 10.447317770069139 12.382585631409471
Rh 11.409290775099004 9.551085802053699 8.216606131184815
Rh 9.848213132863213 9.92641722078083 10.0893358384158
Rh 7.318240379420423 10.241079848585933 10.303585250036905
Rh 8.468477310370131 9.576953409389489 8.027500087282359
Rh 9.590333196898529 8.03311510830543 11.704251796590711
Rh 10.324512255405677 7.386762871271087 9.381852304208595
Rh 7.292730902727025 7.885289148205089 10.920873747050965
Rh 8.03148318406211 7.278592587110009 8.7183315759181
