15
Energy = -80.71600746 eV
Rh 10.000812064360607 11.099158458304986 10.880829149636636
Rh 11.25200961006058 8.970565257763457 10.41947138326167
Rh 9.168069785204107 8.750418431975985 11.721872764783184
Rh 8.873611198396988 12.167151234989209 8.792325427489924
Rh 8.005894898252976 9.999151912282528 9.812552788987833
Rh 11.12182247204763 10.985440694372613 8.641891279261502
Rh 10.499013924133028 6.661220805022291 11.01599582043744
Rh 10.279509558953853 6.495858416477697 8.499073437587752
Rh 8.295033065997112 7.267965007483166 9.872806146936135
Rh 9.242620445728226 10.731478864902229 6.796460301094561
Rh 6.866281988896598 10.626237779550681 7.59547222948631
Rh 9.745178952121895 8.882877770896949 8.44521726713728
Rh 6.366823908471288 8.390433093120514 8.786193826174815
Rh 8.025517360403324 6.224985545372992 7.569760087918186
Rh 7.89267877885508 8.486342070592107 6.801677837851489
