15
Energy = -79.38471887 eV
Rh 6.557100519831103 8.133718385508326 6.57983900523199
Rh 5.073622884233657 9.851289561970866 7.89097731990581
Rh 10.711357918496986 7.9358912483248165 9.262714053195749
Rh 7.320505089579082 6.376008947339398 8.209066851401499
Rh 8.562316508677435 7.197398074209921 10.346164973633506
Rh 6.975250219482124 8.717465564872038 9.076553235535748
Rh 9.17392769231034 9.803287648814228 9.674179037877098
Rh 8.574705034047094 9.15945718898741 5.175950561456032
Rh 10.671398533574008 5.739482380674973 10.417609181941959
Rh 9.007304203941258 8.167445089424742 7.408147964467229
Rh 9.174815115755862 10.616304771979012 7.197847631958093
Rh 9.816987298484056 5.812423540386188 8.045775625662152
Rh 7.189537294710004 11.141128246610037 8.715466956473453
Rh 6.821550755921675 10.615757768963958 6.23386831443488
Rh 8.360911875154018 4.724232526133254 9.757130231023956
