13
Energy = -68.5362348 eV
Rh 11.869872554022978 7.681540940086393 10.255812429020938
Rh 11.259667976009135 8.462457821586236 8.017192405381772
Rh 10.60760737419432 9.407337631809037 11.286079057707775
Rh 10.053589517867723 10.058010988931642 6.424123958306899
Rh 9.856566910310685 6.683042894237569 9.280365825720347
Rh 9.94620280548658 10.26200056611812 8.994498053631451
Rh 8.505937145223639 10.86079689358171 10.951523074427701
Rh 8.49988102179948 8.44493064356776 10.265774693545186
Rh 7.988491701461645 10.74636747624666 7.606098773130928
Rh 8.708070107448838 8.201600479646453 7.458689988799079
Rh 7.318051156686394 6.647747874866914 8.851070442524259
Rh 6.6294794794901115 11.361440282671463 9.556588557490533
Rh 6.597455022671965 9.017336342469742 8.833483731093226
