11
Energy = -56.95090233 eV
Rh 7.740781510374961 7.644659179463209 11.111589467858492
Rh 7.424735854295039 10.553498775220907 9.176977051602814
Rh 9.277338051353798 11.101207887930563 7.433536629999391
Rh 9.289823932028003 9.336433120069938 10.424079436577385
Rh 8.773375046462455 8.707775134287214 8.05886102230418
Rh 11.124994927164057 9.422960580236689 7.478336730700302
Rh 11.614098034517731 10.023979303912448 9.790512804253122
Rh 9.772294636803974 11.70076997102966 9.745392140417598
Rh 8.532946794315217 6.405188186683247 9.155531528048453
Rh 10.70937966486629 7.567924037618389 9.252185326317253
Rh 6.479001547818477 8.274373839434029 9.1117678301487
