16
Energy = -85.53636426 eV
Rh 12.83977221628334 10.911759906071058 8.67025436357928
Rh 10.984899161111342 6.867826103843459 10.102056099992549
Rh 10.582842097525807 8.098646437696981 12.165475086508858
Rh 11.455655072757857 12.322487693098251 10.064969873471558
Rh 11.36754570120614 8.940133660053469 8.937246120553525
Rh 10.976912519724394 10.697439916543036 7.080042595902467
Rh 10.692488863303272 10.136894614235484 10.949880952968797
Rh 8.560682616489554 7.562265712897417 10.825834223815093
Rh 9.839989641790423 12.486694990372238 8.340490140036955
Rh 9.058780898889424 10.213438401361625 8.803939745101014
Rh 9.156016968330995 7.748786789594378 8.364408525312717
Rh 9.557736907953904 12.223294144420658 11.738856824949025
Rh 8.238963505637372 9.999446270324231 11.234210941186488
Rh 7.285731838789296 6.299930108272437 9.122298788471506
Rh 6.984566845814616 8.805864079144433 9.26310562541365
Rh 7.9259355930461695 12.206534654234996 9.885984114034786
