17
Energy = -85.20443805 eV
Rh 10.794673372160862 14.837115162712598 13.211473643796944
Rh 12.121722818806447 4.7875850576665115 14.76598393867098
Rh 11.550585831496715 17.54629840997613 13.383702330887141
Rh 13.59659390984233 17.824555809881193 11.723528512097863
Rh 12.506235265886927 13.71383209421615 11.492970309055707
Rh 11.648554194597885 16.17887931606631 11.067149675983927
Rh 12.823891905985697 13.439947209634468 14.231246815417755
Rh 13.22968494817036 6.706972866196207 13.771562491253654
Rh 13.214087293163848 15.644914539289362 13.00581272175164
Rh 14.271681376184358 15.504043149366113 10.688914274593431
Rh 14.925539866493835 13.77275728790427 12.614909178474235
Rh 11.950749010333244 5.1845444443951365 12.37938050900896
Rh 14.060375611628706 4.466197420632068 13.339443279944152
Rh 14.77022366083028 15.08095927545605 14.945470757880338
Rh 13.927253508514573 17.54016069843059 14.569159897414881
Rh 15.614749782544832 16.492368944524312 12.819786795836524
Rh 12.1489574384873 15.745311225480556 15.320586474723367
