18
Energy = -96.71581024 eV
Rh 11.201234309750184 14.128262804887555 8.546970591204081
Rh 11.67137254394627 8.312823099412851 11.741915806851226
Rh 12.206222795750291 7.988565344886189 9.328127458301266
Rh 11.510223260431921 11.952323117985907 9.613519395119692
Rh 8.5427383066093 11.107080644460263 11.215758261609192
Rh 11.841552746968313 14.24598859162126 10.994424975277095
Rh 8.958224500752134 13.600891445801084 7.89676161797252
Rh 12.988192951359695 10.052285495102563 10.393962501163665
Rh 10.491611127339239 13.131443644205786 12.854098787081327
Rh 10.788798898271047 10.755059079637114 12.032581268046687
Rh 13.23171315213639 9.862956592902208 15.357480949370409
Rh 9.506355665630643 13.358836200385337 10.484568149979294
Rh 12.971486231810474 12.182922106972459 11.821204308185195
Rh 9.112070288878268 11.428494914565853 8.829644585771133
Rh 10.370910374618433 9.54969731425609 9.824938708857154
Rh 11.999422425361994 11.66960587192833 14.151184332984547
Rh 13.399857822972825 9.878018035963652 12.904956475067285
Rh 11.255353209342442 9.20695920568385 14.040803918313781
