11
Energy = -56.21847043 eV
Rh 11.15020875783488 11.375840785256592 11.0679269246999
Rh 7.851089880467676 9.940582494943149 8.770132869155658
Rh 9.887850159059294 11.510921552182669 8.879047445213166
Rh 12.081043584965098 10.092243185036489 9.012508510614852
Rh 11.391079042928899 7.614816099395324 8.825698829264512
Rh 8.869033710829003 7.523917271372421 8.86767356702279
Rh 10.098317203954235 9.348839633290687 7.56489336026489
Rh 10.136499523940527 9.176414066371306 10.363950057758899
Rh 8.584739872431095 11.047882850703061 10.99988371590245
Rh 7.699262385566124 8.604977246238857 10.905700080509767
Rh 6.426035285493904 7.940715333867918 8.909604123828428
