17
Energy = -91.47755365 eV
Rh 6.491791544229751 11.236716140763455 10.452130913246451
Rh 11.298582257649146 11.584740456159109 7.52512068748424
Rh 9.031739669257083 7.181192188060639 10.06508279852558
Rh 10.90722414098555 11.607079808869512 11.035760099507943
Rh 11.493694130887999 8.319516366536861 11.897358404211221
Rh 9.076064044274238 11.141863137725306 6.751840693298569
Rh 12.790986876063728 10.076288043657563 10.853073773550454
Rh 10.467013063873045 13.124422370277545 9.192906459369173
Rh 11.498808432555338 7.561822443347502 9.535760677099944
Rh 9.366047277311317 7.2467266385066065 12.447161898608885
Rh 8.670289826866044 11.48013608113514 9.201711523035435
Rh 9.409175711179984 9.507078763976983 11.299568357675307
Rh 10.894726335478678 9.852759344998448 9.157301728225336
Rh 9.040968232921886 9.021411219558223 7.804777267177329
Rh 7.488173427858973 9.17867212466672 9.739680933215325
Rh 9.959008771959022 6.797068941128868 7.783243237625836
Rh 8.458362580130132 11.672335130670838 11.795720615698666
