12
Energy = -61.96478315 eV
Rh 9.486265965827979 6.797991948155258 9.442229353034355
Rh 8.064504785532945 10.536967984017116 11.545454358255897
Rh 8.107065532477183 8.496216402079947 7.934721624271464
Rh 7.32737212902874 10.642979675011354 9.04233492995945
Rh 11.65149319740332 8.067062027641489 10.119891030935815
Rh 10.572766346832134 8.32973878958876 7.606761528403102
Rh 11.05573130826831 10.290037561502276 11.407481749780674
Rh 9.40677319331383 10.649366842623978 7.324647931159814
Rh 9.532817245690406 11.720401024694569 9.761264398543847
Rh 11.45448426624054 10.382197106825588 8.851631222489857
Rh 7.145787550370956 8.39459106087807 10.351664711963247
Rh 9.431574734963323 9.201732052854023 9.923063311891283
