16
Energy = -85.79782696 eV
Rh 12.14907976645164 9.62643864028236 10.29144603200996
Rh 9.28662868572251 13.067687190583374 8.60142561281797
Rh 9.249523082102124 6.705683224994454 9.560605821949066
Rh 8.128400050135042 8.676158717525801 8.622874196902131
Rh 11.312248513269619 13.727522250656392 10.402190876482766
Rh 9.338425738000268 12.359844603348568 10.997439214241458
Rh 11.824138813520394 7.217747829929776 10.31544349376304
Rh 10.680090726942076 8.527115296042014 8.442344744378142
Rh 9.504052120238995 9.949782378090559 10.254557447352596
Rh 9.570161899207905 10.318731321166036 12.719165472387857
Rh 11.299480091314987 11.601420034907827 9.066908426915377
Rh 7.558679001501673 11.308824339345362 9.452904421653406
Rh 11.617136818622269 11.60023440797383 11.787220662110183
Rh 9.80730987119885 7.950725917997812 11.602011827024453
Rh 11.786542514161964 9.101230711994953 12.647811274804251
Rh 9.301736264212376 10.700389203762109 7.722047004687104
