21
Energy = -114.88905137 eV
Rh 6.832454558064659 11.279817799818524 8.196850410775335
Rh 9.853955789526932 11.843804108731684 12.981134025942033
Rh 11.558698112457868 12.475787880606731 14.53762162256147
Rh 9.250015021568649 11.303293804153821 8.012437358108057
Rh 12.689134930559684 8.689883147698346 10.44400437996726
Rh 9.32635289048784 12.273028709667487 10.463584334904564
Rh 11.253996555689247 11.096774170235843 6.660539790570144
Rh 8.066765332172556 7.564317887774545 10.792736669512538
Rh 8.802101797039022 9.806006313409629 11.82076416121289
Rh 11.252583284863503 9.758097321314844 12.54702414547597
Rh 10.547196285068882 9.99502999886597 9.866322106362615
Rh 13.876368492543476 10.325850648971716 11.740992927614473
Rh 13.745667446493195 11.885571370890059 9.828531716543534
Rh 13.433525118504734 12.58008457945935 12.923007104656145
Rh 11.717911064048884 12.008360370738545 11.292684794730901
Rh 10.455068954988938 7.805102374873904 11.134046651149298
Rh 11.349709229662777 12.509656609025171 8.820051232143681
Rh 8.072641528215572 9.435814661976815 9.293665836951382
Rh 7.101747939904728 11.340840662357392 10.631071134008426
Rh 12.597357327105406 10.206101431315664 8.458469743710255
Rh 12.888308205722465 10.438593492207804 14.15762296616302
