22
Energy = -122.3784578 eV
Rh 12.677541865667457 10.440207594645015 10.437955997959149
Rh 10.486644479291094 7.964659912070102 9.32176335631806
Rh 12.978130366872932 8.36742964730827 8.993474244660328
Rh 9.77143984254525 7.075791293428011 11.62880323248684
Rh 8.584407322342479 12.183290594684731 10.555772599437958
Rh 10.951084032325296 7.953137674313663 13.667938497433662
Rh 8.161573649404035 8.53424706884759 10.273837073915852
Rh 7.2017152137980425 10.42720995990274 11.801826602281212
Rh 11.428612575363475 10.297561992608761 12.653759450550057
Rh 5.765652676999256 8.819127305122393 10.389803980761634
Rh 8.956680835212603 9.789961634512673 8.173155875945822
Rh 13.31020302023285 10.748219757360907 8.007322817000992
Rh 10.141832024181552 10.28855584109276 10.367968048504583
Rh 11.282281931452406 9.260247873799704 7.266064178830574
Rh 9.150087695529658 9.337638647092044 12.618084902202275
Rh 10.222972933549691 13.718984714964792 9.356090561186418
Rh 12.094571668362748 8.13635350676612 11.418588094199697
Rh 11.070055208485833 12.47355518705258 11.46585480180225
Rh 10.914128495051683 11.568024180103885 8.229201522790285
Rh 6.8924609066485765 10.742993931868947 9.285797338843697
Rh 12.671384391388242 12.816867858450049 9.56471486919483
Rh 8.47733824076666 12.263193490985476 8.027797924402794
