29
Energy = -165.34563974 eV
Rh 11.746770856827466 10.210061576565659 12.11024955772628
Rh 10.593641147795768 11.853800634260828 14.552903813705393
Rh 9.648596707599792 9.948373000643956 10.362269008394028
Rh 13.985834425967447 10.666337733110295 12.764830701237425
Rh 7.457606445170863 11.338509135664056 10.926719905333524
Rh 11.752136179553812 12.106450009278197 10.373609174038668
Rh 14.822327738510644 8.85379777106947 11.362801247638588
Rh 9.120762239848673 14.19632816524385 12.188004234512087
Rh 12.570032692712713 8.03803303594734 11.267950347993732
Rh 13.683929460836353 13.316985047846954 9.176976394298833
Rh 7.340404666038141 13.730925089790626 10.629370198130177
Rh 13.44213993771902 10.016943785509692 15.071549470411066
Rh 9.508822870231548 11.745366256709483 12.242533697873474
Rh 8.811961101897944 9.897067535142934 13.669996635513531
Rh 13.090729295042777 12.397558125044094 14.386997140537044
Rh 7.653944038274941 9.016561910737579 11.650991524899583
Rh 10.378305504761478 10.835443295202214 8.046834091941658
Rh 10.564839748235238 7.6577580823816636 9.753570162977105
Rh 10.856433557966529 14.452321879204458 10.443561711531954
Rh 12.99568650159231 11.329409982065798 7.778883179077498
Rh 13.149554032095198 15.177249256209077 10.687721856822153
Rh 9.263666718071345 12.539101958967407 9.571782737073175
Rh 14.217206090022474 10.881684803053949 10.101601507407874
Rh 11.273414883316432 13.240388447780113 8.104680353547424
Rh 11.229689331437324 9.487630172383723 14.333845303549017
Rh 11.47548298785347 13.327931100254782 12.707943861200953
Rh 12.11986499644266 9.655356580826993 9.453247586064819
Rh 13.773627332306836 13.007532322302216 11.793430245851548
Rh 10.116630044339665 8.265138401085437 12.20633484087857
