20
Energy = -110.03959865 eV
Rh 11.181482434364517 9.407566726810055 7.071218851661505
Rh 12.552368927734088 10.93169192907704 8.450319649065074
Rh 10.01119157877986 10.53414374768278 9.066162928094672
Rh 10.773619240609476 7.9970856402811945 9.03413649434957
Rh 12.282115617910446 9.504259178914122 10.436956792279506
Rh 8.660084915697999 8.938547089930273 7.724034255319907
Rh 12.364947146691726 7.049778722737149 10.752197853342173
Rh 8.003963763278017 11.529098451662525 7.998445039082314
Rh 10.92831685457125 12.805569564744552 8.950570219546885
Rh 6.907664112735664 9.731829586993793 9.485011455406788
Rh 8.645249943699667 13.724525927057472 9.027185973521902
Rh 8.065695747684103 9.439637556238223 11.78165451601153
Rh 10.308102289259903 10.783191113924758 11.546285059638317
Rh 12.367245535427738 12.070239063763804 10.884922506778576
Rh 10.315340484309308 8.258891928911753 11.637079392626372
Rh 8.300468633678376 7.728826228051037 9.914358737409946
Rh 10.052569241472476 5.96361439618998 10.503827540404552
Rh 10.036942637885897 13.279324721640934 11.253472158344659
Rh 8.1533654034858 11.686987798831002 10.52394694789619
Rh 8.361867142685815 6.843576329011006 12.238655111233221
