20
Energy = -109.85997181 eV
Rh 12.736017319769953 9.512292319447358 11.026863753480464
Rh 8.47901189683471 9.279171504837374 12.009857856330687
Rh 7.2082005131593245 12.250885225284852 8.652330695535742
Rh 7.864907966001432 8.060045501746972 9.7137767932933
Rh 9.685752315095494 8.86471381715419 7.949705181194068
Rh 10.790100954726652 12.889288261169957 9.401235502538812
Rh 12.681217815018105 11.994215664580146 10.704926764383927
Rh 10.261430955107903 11.054658998801358 11.553576760546191
Rh 13.26714209933768 8.639463490246177 13.335107654171313
Rh 10.214478641098964 8.33361717091668 10.431606162314019
Rh 9.463558984935815 11.567561028697837 7.652381112753851
Rh 10.997496320508644 13.330727246042015 12.039030371464388
Rh 12.209479442824751 8.048836277534008 9.016118574613989
Rh 8.549512172232735 10.452978515474708 9.710555722602017
Rh 12.320841986454587 11.071183399295775 13.051107142714073
Rh 8.67276579178465 12.832742593943196 10.65924793673707
Rh 8.889839994395853 14.03793812444813 8.346224209950309
Rh 11.33890422631387 10.427473417712319 9.050156366359005
Rh 12.195838087082203 7.124908553968216 11.513036424850288
Rh 10.844969690695459 8.898766062077105 12.854622187545706
