28
Energy = -158.65255912 eV
Rh 12.355422118850186 8.103672164173762 7.29819142107725
Rh 10.641597348782152 7.743278485125345 9.010206851651002
Rh 8.75144316158738 7.408535188482773 10.648037056584412
Rh 12.532578875946157 12.02460409546352 13.082002311821325
Rh 14.323989702716647 11.209638648231095 10.367588114054778
Rh 9.47453780062415 13.256562250308361 10.683628208479478
Rh 13.818917379764494 13.317462875807022 11.490636626345688
Rh 13.159537627380315 9.992913898160186 12.079037045453742
Rh 7.866979440142089 10.41780820802885 6.87884082451209
Rh 7.194569028389123 8.934013787842517 12.146137418603736
Rh 11.151563603468427 11.109924227566369 8.32330413966777
Rh 8.31238244794697 10.649637969053808 13.65871717527565
Rh 9.836542423327382 11.901083655201228 6.368935179095394
Rh 11.241509966811385 7.2435895127248235 11.500330357265634
Rh 11.479687440354247 9.568798249998244 10.373625919795634
Rh 8.158781328488711 10.946022137084311 11.039167192542854
Rh 10.696663512244687 13.540300336481375 8.458007406222595
Rh 11.823778009967699 12.24782491844752 10.464814654656614
Rh 9.73756491560726 9.050241884958115 12.278134900682046
Rh 10.230272040959685 9.316720274367995 6.9897111815641555
Rh 6.40612933939437 8.361439281957106 9.924181929583389
Rh 6.479892333050295 10.720543969561529 9.07461424657615
Rh 11.78963764771511 8.697722012924366 13.594505301314259
Rh 10.191100387392455 11.61179080551594 12.370892859344908
Rh 10.949081825171394 10.758158846378256 14.566708932350165
Rh 8.59097402506518 9.302099476764804 9.015301729459503
Rh 13.208930524596761 9.912726843392786 8.640177902326764
Rh 8.657889774915997 12.012689701411809 8.698626901725119
