20
Energy = -109.92094244 eV
Rh 8.128057497611655 12.537062971356056 9.201269338626432
Rh 12.045854400355092 8.71499110845758 13.243204531683785
Rh 7.616488310083675 9.070192380876964 10.1050572865945
Rh 9.907666811027768 9.627089243686735 12.612324154129702
Rh 9.344239511953862 7.5958166591396 11.492955381275038
Rh 9.949438088540395 8.547516034680436 9.30030633208466
Rh 9.50081732622821 10.903701762720324 10.48359581784136
Rh 7.151253119665442 11.37125657640844 11.324190573761536
Rh 12.274107002917514 8.125856684068397 9.864440215236831
Rh 11.649735943804531 6.860511365060063 11.78867189275539
Rh 6.20558558390127 10.936905885277161 9.024612411421357
Rh 11.992353218193216 10.207669778057708 11.276378718158488
Rh 10.167160890476335 13.440051767165594 8.315827776614423
Rh 10.417284574824192 11.438763056372439 6.971501679972251
Rh 11.446564925418917 12.428054249503997 10.117386876459355
Rh 7.515949089307963 9.33223037437776 12.641205076557782
Rh 8.502187803191763 10.356350311230086 8.085076341004102
Rh 10.547977110334832 8.775203278248725 6.925112185292242
Rh 11.732639352748555 10.41588871757262 8.669439340845068
Rh 12.84846346004922 8.36284135214811 7.559712705292815
