27
Energy = -153.8694003 eV
Rh 12.050591792149056 12.117124522847833 11.880543663171768
Rh 11.93716923871019 14.04978234458742 9.950618649828124
Rh 10.96593884040863 10.007244194933142 12.808925628618423
Rh 9.410192447619641 11.844290446141592 11.759736607996276
Rh 13.55878555857716 11.956455158894899 9.771009401554517
Rh 8.562788882719783 10.317676414564383 13.655898640475842
Rh 12.583319606257154 9.814692536521616 10.766268298986017
Rh 9.134148590836453 8.055088525072724 12.61113839808005
Rh 11.496287693071633 7.660327941898563 11.692053707206968
Rh 10.976695486813009 11.609323986012605 9.650003459144864
Rh 12.182065871268899 12.859763316619855 7.709310490980706
Rh 9.484747232939352 13.703663007313452 9.866353292491448
Rh 9.881591378579245 9.452964286499219 10.573897068783277
Rh 6.773046088311249 8.484615465614858 13.29083601855304
Rh 9.714593203700502 12.486534932963893 7.526009536975157
Rh 8.36067838976665 11.30742315861765 9.433212861128423
Rh 7.475340422572735 9.99083396675256 11.388227526654603
Rh 12.578727172740011 10.243904191649607 8.102763387553745
Rh 11.664105739445755 8.024357157745966 9.137047973736161
Rh 9.520785324183068 6.8969539653390735 10.256939267228498
Rh 7.817414369771088 10.732244779864926 7.06751816511917
Rh 7.126464241053348 7.454666793787489 11.015222928442423
Rh 10.02453374004104 9.904193465349872 7.876852795758349
Rh 7.775022720567562 8.85548150110361 8.91309321359266
Rh 11.6425491280361 8.402764477358712 6.658357897667082
Rh 9.562701552167082 7.38784702948479 7.706637512298097
Rh 7.565851041940442 6.317377758977178 8.82371005673436
