20
Energy = -108.82925209 eV
Rh 9.849312046286123 10.48139555409317 14.006542215106947
Rh 8.027298593412185 13.294169596684608 11.211467043606522
Rh 12.129231218306943 8.64565965619533 7.464051233778729
Rh 13.26150839296378 9.182642330052735 11.803762247257911
Rh 9.420734069477076 10.045888773421973 6.697840684397536
Rh 13.46089157671914 9.892047962772816 9.176710725841303
Rh 7.664152763362199 9.738787054055235 8.461753181795194
Rh 8.284822080536362 11.965982030875036 9.220288371462464
Rh 11.974407094680641 8.00898491710455 9.984010945917943
Rh 12.194080310438576 6.943367874425393 12.152842114370376
Rh 10.584292122943195 12.839262491351755 9.734924075099594
Rh 11.653655378557186 10.766485468959004 10.748774944928254
Rh 9.642257840329984 12.46348857830528 7.276617010527246
Rh 10.771271896341611 8.968224481921062 12.27523726720152
Rh 8.314360867224313 8.839047135631015 12.814066681709834
Rh 11.348000392983465 10.930547808199265 8.185641925628788
Rh 8.991111848334315 10.117042178623707 10.728925056121204
Rh 10.033995155851322 12.076194130669126 12.093493673502197
Rh 7.762254522430337 11.30203476526982 12.718302714883173
Rh 10.001988906772429 8.856810372852996 8.877690583047947
