28
Energy = -159.48172566 eV
Rh 7.245752525254306 11.344647082877946 12.42392328685599
Rh 11.083730938769065 12.15824567920718 9.520272834111484
Rh 15.097024942127542 11.967539647941981 12.806102041836985
Rh 12.373214818928718 12.51025535034424 16.35523125824383
Rh 8.39672756537652 13.188391765272135 13.430705689154227
Rh 13.083539519939471 12.328649888550308 11.342965836073295
Rh 13.283976768403718 10.658973282446278 9.579266583990778
Rh 15.343160307402968 13.210177171544546 10.599459524681391
Rh 10.235877835908509 13.19549645723175 15.09003190707476
Rh 10.240059844271522 15.061884844410063 13.321169585823831
Rh 10.828597428953241 10.662479457127873 15.607299208216775
Rh 12.09095551493546 14.916876170467189 15.151219894332144
Rh 13.967322008829791 15.329597002222604 10.567530829158612
Rh 11.846669661950036 12.044364394573133 13.59976817330373
Rh 13.720180721199618 10.7339268619095 14.66716065702413
Rh 12.64994020580894 14.516278432598934 12.640715577573173
Rh 10.186187610302758 13.011268231385499 11.774458503031173
Rh 9.552518511910234 10.817371670393959 13.345733212539542
Rh 11.296478053197541 10.384105440915135 11.345670682437296
Rh 13.718186461852646 9.942232639650111 12.101671608431307
Rh 15.675510818908366 10.632064134530303 10.593673441132966
Rh 11.76780401448453 9.355672779562278 13.644686431591651
Rh 11.488257368973859 14.638578834476089 10.336798810302607
Rh 15.215866692805378 14.565545167777698 12.730647668209997
Rh 13.969864695885615 13.292975546054768 14.591957522184462
Rh 8.98592266042378 11.088512756469461 10.750206091223486
Rh 15.227725940126012 11.905360952108627 8.477335942161309
Rh 13.270461274758851 13.397831326789527 8.975063617401057
