23
Energy = -128.88513149 eV
Rh 12.566303328931367 12.455376719846592 8.66220643027136
Rh 13.513855274350934 9.783915223576505 11.573798591163367
Rh 10.582477338263619 13.574657864943791 10.157825951964552
Rh 12.06647413640132 11.761797389680968 11.019052155314268
Rh 12.728804935909574 9.966909638258938 9.15998104614232
Rh 11.818202467750515 8.12329627759837 10.851215394922832
Rh 10.524378979967246 11.193993994125643 14.558281503615442
Rh 10.170217434183163 11.958271155839265 8.209960135058918
Rh 10.005968287121132 12.31575269403765 12.401022529236709
Rh 11.133605920910655 9.869756076140904 12.557352886726544
Rh 11.754566402965182 10.475995241182336 6.89715238189816
Rh 10.392826262706754 10.159943327336647 9.958318054480856
Rh 8.648988421942267 11.884012153703527 10.359411795097566
Rh 11.208364998615112 6.392277080283894 9.315571504602888
Rh 8.70260892284761 10.204925575334748 13.261959356264855
Rh 10.609736070755721 8.504031045385744 8.081394799820488
Rh 9.187253159812352 10.126870193423315 6.785969000954363
Rh 7.6152558755422195 11.687799102719621 8.045662454972012
Rh 7.2019719152008115 10.190819318842774 11.337384184144424
Rh 8.082150980315937 9.386763417821678 8.936808593389909
Rh 9.165689812042991 8.493993019702092 11.391822732550375
Rh 8.899351427938479 7.039450034803584 9.374620208000989
Rh 6.805822341205326 7.860489180263453 10.504985110431686
