22
Energy = -121.944594 eV
Rh 6.384454583854378 11.803129775688516 10.212192001031875
Rh 7.916255151600466 12.469393819476055 12.319353681774432
Rh 8.581180884132626 13.190303321037312 9.81627155037323
Rh 6.8321512968213804 10.030841707179125 12.132345605745432
Rh 7.081083906018069 9.155297861746574 9.553491409833521
Rh 7.92979263168719 11.303514134463368 8.192132785715241
Rh 8.705713761229614 10.770899479968561 10.549240195386451
Rh 10.616332470534562 12.05648731052616 11.52773882446583
Rh 8.791569641950693 8.36021287586637 11.51503419217082
Rh 10.46269902729598 11.729506058686923 8.86976223689932
Rh 9.257346470607098 10.403379634278835 13.017661059560439
Rh 9.102295348558506 9.235210703924578 7.5067213704233495
Rh 11.351189906850221 9.370768027040832 11.945223112582731
Rh 10.456421953209267 9.247868747478025 9.649795819420369
Rh 8.714013849547756 7.291282998494847 9.173341050566508
Rh 12.43954729194922 10.86805582587711 10.173033969326886
Rh 11.54849638563119 9.925939828258231 7.447651873901006
Rh 10.83291652895464 6.9934356316378885 10.707203077198214
Rh 11.039986924523596 7.331642286964685 8.082085743478446
Rh 12.878580675099478 8.325203259414595 9.90016929175755
Rh 13.985224526000161 10.103551363573013 8.459134687452881
Rh 13.271129089551314 8.055372573616541 7.31906655896678
