21
Energy = -114.72557798 eV
Rh 11.671863041987464 10.875657779656676 7.717947468653395
Rh 10.232119170330952 13.2473671029864 11.870767169608783
Rh 13.721055608525397 8.511093916839384 10.000589636990064
Rh 10.137786255948058 10.436293556539256 11.785932420745649
Rh 12.112985202594633 13.220738060164017 7.810707388046546
Rh 8.013456313972963 9.328531417325387 12.124933701734875
Rh 14.13014938605457 10.386024716013685 8.224916680994314
Rh 12.147615886466744 13.136424155148525 10.319866880539342
Rh 8.727392472155925 9.014260449157618 14.442667012037118
Rh 12.506009057059739 8.527861740617864 7.769321366447995
Rh 10.17398194170082 11.85173758110796 9.59503315040511
Rh 10.11942610840805 12.495300966595781 14.245738659810542
Rh 8.119441927770078 13.70850203823033 13.179428833724
Rh 14.26292909356291 12.736569458615032 8.878135565320067
Rh 8.124773796721108 11.91379624192056 11.269267900387364
Rh 7.978760838894366 11.300348233096555 13.743218646351638
Rh 11.440664561360506 9.66608726861934 9.837754079059524
Rh 13.380025291139962 10.96616817011782 10.564530736235616
Rh 12.153622566931444 11.767636633054597 12.65560836102123
Rh 10.837273428641733 10.044517906949352 14.131770117568369
Rh 12.396232514185881 9.251392623076391 12.215632077772899
