28
Energy = -160.3370872 eV
Rh 7.430437588886853 11.455424024580326 13.330946971323517
Rh 9.34011254302937 9.720414551377393 13.511536155058653
Rh 11.226824852869902 8.04018134826659 13.75687251793714
Rh 9.670952632320134 7.859431250052666 11.721950212163446
Rh 7.803344800485222 9.69810113523815 11.481598942308395
Rh 5.953896389056223 11.470283899788289 11.179525489284059
Rh 8.253138106755898 7.968273062775225 9.585363570462736
Rh 6.423491852525504 9.77427839228805 9.313181460457635
Rh 6.834382196043338 8.082511151475446 7.444465792781022
Rh 7.640056402245456 13.41303371306384 11.601853988577217
Rh 12.248973013780073 7.606298858344364 11.470444405667479
Rh 9.55941229803703 11.745000812852963 11.932068010692898
Rh 11.485385573168264 9.987687980768982 12.104571413730119
Rh 10.809818654955915 7.511865355251324 9.37217489105295
Rh 13.35534862863673 7.149895610858805 9.176734279753687
Rh 9.754893924500358 13.565393269857426 10.118791155423713
Rh 8.025953302004076 11.753113370526593 9.666391231379004
Rh 8.476349122668362 10.035337938314873 7.761116014410011
Rh 9.347305710342136 7.651781043134888 7.2632978469138445
Rh 9.970209642190785 9.964744587500453 9.963038856746511
Rh 12.612389833966155 9.526646487781647 9.792067098746209
Rh 11.862388588044094 7.182433743835008 7.038765851729464
Rh 11.033809074389135 9.569696953411471 7.558055389635217
Rh 11.691925086629096 11.890063491341099 10.427555559688509
Rh 11.848545737534307 13.777157525418737 8.69072339002778
Rh 13.570246735618177 9.11196967089813 7.450469436390908
Rh 10.120020104997511 11.981228685708867 8.085529963456832
Rh 12.669175507036567 11.451119705483364 8.080221314806943
