23
Energy = -127.73159671 eV
Rh 12.8831323884764 11.753581363514495 11.806086273523515
Rh 13.695870638811256 10.65162006052812 8.43431081754969
Rh 12.160211196251105 12.308471016680887 9.547820793982151
Rh 8.281817086182743 12.25262323676833 12.178373922551803
Rh 9.90102957479993 12.062191633912832 10.15006872716142
Rh 12.231899869841643 9.778242101923135 10.384101622914962
Rh 10.63471053104015 11.785239808978341 12.5627165421539
Rh 11.430769270173748 11.361484142239256 7.304284310862172
Rh 12.029064144997017 7.726142830710001 11.878046309582311
Rh 9.090421537319425 12.085790325841263 7.777484211664744
Rh 7.452638042986922 11.191890881113476 9.596563590612575
Rh 12.00730578192884 8.90478453809569 7.928537098885539
Rh 7.222782960330736 9.269882851015334 8.291989825048933
Rh 7.579286552436422 13.501810295892941 10.048840044398249
Rh 10.208996349236825 9.446962476715035 12.352040596301627
Rh 10.891218767175452 7.540944981693817 9.729175869547348
Rh 9.498125463604689 9.540412652452224 9.975378592182667
Rh 7.860874746047306 9.872110691575683 11.845512049087496
Rh 9.583631323690746 9.586122006377897 7.546200425052814
Rh 10.035832998083219 7.136208389644083 7.493214390725468
Rh 8.229519956621816 7.394957384461688 9.427050336769515
Rh 9.571103507395152 6.959672605100999 11.797923815633851
Rh 7.208343423039875 7.605876626611819 11.708659399988305
