27
Energy = -153.49351977 eV
Rh 14.4351198903839 12.061636028846838 10.140162071341178
Rh 12.52077630739078 10.393364003242336 9.99197699783072
Rh 12.517977100054946 8.571203589370494 11.78433983414975
Rh 13.212787824890338 11.120126103566555 12.233306914380298
Rh 10.880701086250975 10.58158309992673 8.018171479321799
Rh 12.25576266237275 12.555345741043904 8.817853707005941
Rh 11.100573763956007 8.387764738769974 9.574060018489343
Rh 12.62865357818827 13.450716208725005 11.141071934596248
Rh 10.285091759946106 6.259033713680247 8.429059117288178
Rh 10.993613683384229 6.294746861511878 10.940686608280904
Rh 11.336135024955691 8.193987275141424 7.015400753287188
Rh 9.76871048662301 9.813393897573862 5.903445780793821
Rh 11.371027990979272 9.920988348349121 13.645513724733965
Rh 10.290312051520006 14.199557644584958 11.113620705436333
Rh 10.896462361104419 12.060136887319644 12.398107579093981
Rh 10.038739661555448 8.456314077845624 12.049388504661982
Rh 9.955079431554516 10.599527298376943 10.605935773138114
Rh 8.980491695689144 8.465676775798112 7.935326555099555
Rh 8.717991422898448 7.27333958103777 10.187993181538785
Rh 9.726629672741797 12.647008724785165 9.229975429939733
Rh 8.828696337192367 10.482034854509312 12.976533378408625
Rh 8.37183938948693 10.981434224607103 7.689149900091012
Rh 8.425908238306512 12.573255304636012 11.576748682784254
Rh 7.830988186072075 9.742196768686426 9.878065076037299
Rh 7.498275684096186 8.473529599851593 12.059274080599943
Rh 7.161217729005996 12.182922701479031 9.469536271949595
Rh 6.59929762674872 10.888036594082482 11.824156587070432
