27
Energy = -152.46044891 eV
Rh 12.605904786712555 13.024335960783423 10.807749300861303
Rh 11.726464447986272 13.219223754383963 8.190459507708919
Rh 10.280728765694517 14.400824681601074 10.244379719943293
Rh 8.9622554964203 13.095009128913727 8.301507214877628
Rh 8.191865476519382 12.788433258202733 10.882837340523778
Rh 10.448027944660453 12.809955264683348 12.398773010719308
Rh 10.473021087691915 11.963692998814345 9.893908938856367
Rh 12.847249242611857 11.948785181515428 13.38811520128007
Rh 12.747320745986134 10.998136213177041 8.998780555192877
Rh 14.28434192572703 10.551283738277782 11.222388143254552
Rh 14.455604814512824 9.226276026178951 9.04466320365457
Rh 11.86825495509388 10.683770275420631 11.552691492612052
Rh 10.42089940854481 10.865093627945262 7.593268876236979
Rh 10.554081933702784 10.544691601068479 13.833846587819565
Rh 9.277468792415664 10.600040905406034 11.61667135027814
Rh 8.27343687603625 10.656968127872078 9.200146549240298
Rh 8.182862907971465 11.850932006228186 13.434550365501101
Rh 6.820783957935981 10.507471090206325 11.433453247696091
Rh 8.202417267025846 9.154951903765326 13.330973583810595
Rh 8.3908509257048 8.403729473969364 10.648891235037096
Rh 10.574336581142353 8.412134447425007 12.20921394347669
Rh 9.215052973127047 8.374461674011 8.05637262769118
Rh 10.621183832142853 9.44984538140639 9.722513561092027
Rh 12.834569580282777 9.267286548751816 13.344413343816367
Rh 12.759467002937441 8.387811177403945 10.742571165195681
Rh 12.190708287519008 8.474030864031898 8.123649489725256
Rh 10.538049238762381 6.986426033488085 9.966649317008919
