28
Energy = -160.10384012 eV
Rh 6.604312297253651 9.04280755865262 13.361296391606427
Rh 5.952713949518525 10.447157834982189 11.289298768287754
Rh 9.148647303920637 8.713453729001307 13.164803183668047
Rh 8.016031177107209 11.005175716829493 12.73669728253847
Rh 7.657395889689204 8.412376788508515 11.137707853843434
Rh 7.503352333626085 12.840453028467355 11.066781185584926
Rh 11.771999766424303 8.590512625428378 12.756154601974718
Rh 10.41015166438015 10.565662696762335 11.921197391065395
Rh 9.65547502131629 12.896743073848382 12.53987296689943
Rh 6.2527600579564 9.164011307914187 9.080855156496886
Rh 10.188573133868417 7.897178884534969 10.93047159877794
Rh 8.658990635230467 8.167748269292767 8.784708342969413
Rh 8.167879032867639 10.632017036943049 10.011645785722946
Rh 12.04604455602053 12.500526813064164 11.4377560016352
Rh 13.558977568725856 6.779945452180003 8.358689494729173
Rh 7.913834969449131 10.260813819014562 7.453289176018004
Rh 11.077113785215897 7.38762507112856 8.546454147206896
Rh 12.693025874312008 7.600316617927914 10.575529894361384
Rh 10.622774204285395 9.885060365384922 9.367832788837257
Rh 9.965388492943998 12.495127677941031 10.005906981508218
Rh 12.76387493207695 10.135530438650221 10.949137891795724
Rh 7.930049786783584 12.667638253848372 8.474120076327887
Rh 13.071485229761045 9.264774206635867 8.555281484307248
Rh 10.149123361786309 9.210696552283608 6.898069548362561
Rh 10.10074494136639 11.706618060080125 7.5322091991626
Rh 12.367674053512266 8.07146396265466 6.4306092667838275
Rh 12.302158742966384 11.79140403063786 8.963339552792913
Rh 12.240784134895751 10.675848204315415 6.617578912249512
