22
Energy = -120.31639785 eV
Rh 14.216278875363406 15.064974690779282 11.295900430789631
Rh 12.022268766019572 11.794729474222533 9.843650627940377
Rh 10.82548218497234 7.448327908704289 10.974262974534183
Rh 9.756995586189797 11.484078761617353 8.405026482812515
Rh 10.139347385967506 9.043522263944192 12.885071641270825
Rh 12.302748112301776 10.10703802451578 13.335468356876406
Rh 11.08061553848639 11.867120403061056 12.227566326387578
Rh 8.886329969784232 8.1290757796677 9.453818131563594
Rh 10.463644127059176 13.659786439359987 9.39605502713095
Rh 8.789702683602549 9.426972706355848 7.289278864623368
Rh 12.681672234158881 9.262323996927854 11.14088758907989
Rh 8.43907308842326 7.4205176614620285 11.859948375604448
Rh 7.596734973875519 10.367914905597535 9.310012961558051
Rh 10.341142213632853 9.977883250243615 10.520777419286768
Rh 9.993288731634362 14.105786614600314 11.851392759718534
Rh 8.865110430620147 12.137818410554168 10.803931702922089
Rh 13.38134901642556 10.031800987608758 8.881073973040532
Rh 8.002342160759362 9.926896181376442 11.767293825890372
Rh 11.07323345104522 9.27177302642532 8.230312672447042
Rh 6.516267868857308 8.363052361138088 10.410770187906039
Rh 12.604787606637283 7.584557271021309 9.273509129425081
Rh 12.368726158933685 13.853065822549762 11.152050206767676
