20
Energy = -109.20875059 eV
Rh 8.956583092037244 9.39558613976779 7.382552517228434
Rh 8.929416699137066 8.090044998778655 9.42034670241772
Rh 9.05536966618474 6.591244411482718 11.301078010235734
Rh 9.392826914903408 10.055866374883827 10.75068302891298
Rh 9.068509840105143 11.4945241894511 8.674773477367765
Rh 11.175027210971543 8.825229225292292 8.474839604088823
Rh 10.993227715515616 11.024792820022252 6.978513527367046
Rh 7.78897342625665 12.01082166836714 10.848001506858642
Rh 11.186726966792099 7.895609763919255 10.874051251155738
Rh 10.705631920959085 6.74362823997728 13.085557762941283
Rh 9.415265405616728 8.801780305522374 12.851432809949449
Rh 9.488797063849933 13.67730384832666 10.165575901970293
Rh 13.128550705831822 9.408310603448324 10.126696248708713
Rh 10.104840359564825 12.128736589198702 12.006147175982049
Rh 10.149431272557926 10.792609309522208 13.991945302459667
Rh 11.43733735475951 11.096512992123749 9.44038884668293
Rh 11.063262399991006 13.2401735959934 8.211544599324844
Rh 11.718609039433973 10.027116974898558 12.106228020174683
Rh 11.835472203244029 14.439888639203744 10.162540513438543
Rh 12.49384501547529 12.367765608006591 11.236324150154438
