26
Energy = -146.66576163 eV
Rh 14.12371245806329 9.505554786116484 12.029703029658611
Rh 13.49129458482216 8.736008657816331 9.705834449226565
Rh 13.20339740391823 11.177921709628551 10.384007720726773
Rh 11.70935447398149 9.178181358739481 11.455874045858456
Rh 10.670158943616359 7.088504985676506 10.841880441502726
Rh 12.362049484002513 11.400153265462937 12.666404691561057
Rh 12.993879237523908 13.509914502851828 11.327735174263365
Rh 9.9537855323513 10.67425143041281 12.79199937975598
Rh 12.32370570013876 6.656978057685254 9.078562562773499
Rh 9.619265525209004 8.214798626074613 12.868737391109875
Rh 12.643153273054759 8.348543443987746 7.21226232628989
Rh 11.891044064206469 10.414746829487722 8.374709810631641
Rh 10.410932524932823 8.340566005165481 8.708318592210544
Rh 10.521897314166502 12.913053076931822 11.668238585188194
Rh 10.006309656541047 10.763286863203785 10.24477909919917
Rh 8.631683947342216 8.69804887337268 10.562182484026174
Rh 11.511353353420114 12.744340002016164 9.374563915223211
Rh 7.596286842828998 9.785435464576684 12.63707425101547
Rh 8.135286320507955 12.125990297801104 11.62363619260702
Rh 10.455191097437439 9.507227303305212 6.479584295650869
Rh 8.422387986262095 9.78995632338134 8.183582740188111
Rh 8.073701274899982 12.17878335639391 8.999924506789256
Rh 9.938902230979652 11.827784311229372 7.571006750422822
Rh 6.732099398473083 10.328312266704824 10.236368087145657
Rh 5.774126912395051 11.487781417605326 12.401311561502089
Rh 6.123894612532342 12.844550879234133 10.287818426145334
