29
Energy = -166.17604774 eV
Rh 10.398784728426103 12.960313230144603 12.978773195501722
Rh 8.9248626148775 10.754942124383742 12.98297578894711
Rh 12.983405461346766 12.774031439908189 12.879231035283423
Rh 10.2456796633901 8.45392618336417 12.898175485125934
Rh 14.342551537973081 10.566055006536411 12.735241669987294
Rh 12.839863188313954 8.453894399484192 12.802470508938171
Rh 11.786299017971894 13.41700316824327 10.70970285810844
Rh 9.76807635876287 11.966467295310851 10.784456490749353
Rh 13.840565204506612 11.918329416376157 10.57178124963562
Rh 9.677344024094161 9.569486136346317 10.743706374208209
Rh 13.756499322133303 9.335444593384182 10.524349062123568
Rh 11.5969132911941 7.987864542660552 10.612744717572625
Rh 10.168773332542434 13.047005306785595 8.578463080066202
Rh 12.750971353500066 12.862719000650236 8.404699211968909
Rh 8.696180481872394 10.838609440853439 8.6424727536109
Rh 14.111236559283872 10.654901900089568 8.315161994602136
Rh 10.016940173534067 8.538975264172851 8.500747117845316
Rh 12.608045866588034 8.539098042835217 8.325913272308275
Rh 11.0942402380982 10.662123962285715 14.194578709392033
Rh 11.884521202890728 10.663949431907048 11.941261994765824
Rh 11.749029030896656 10.713626035250718 9.360986934303899
Rh 10.72421009189534 10.799976038713824 7.205765549864928
Rh 9.480881250880646 14.496009623250401 10.849693269606739
Rh 7.693087717783662 13.082458357446798 9.57351797869006
Rh 7.8330441983950365 13.031060339619081 12.251222717238438
Rh 7.362909035572984 10.844211800310095 10.890442482816297
Rh 7.6823625672522 8.58418853260517 12.174726452244233
Rh 7.541391774284749 8.637583578718335 9.493888389365736
Rh 9.228149220650021 7.060133602270975 10.718038086457039
