27
Energy = -153.451704 eV
Rh 13.116573179904192 12.854010876816458 11.200921090940074
Rh 12.833669423069027 8.043437232135547 12.899386508208195
Rh 13.418482099819366 10.505854023626854 12.236528608977952
Rh 11.27849520315984 9.989404513075488 13.637102937548956
Rh 10.912831581028327 12.24343128556703 12.209636215940328
Rh 12.878059535170758 10.947466105027281 9.508219320061837
Rh 13.303911468266854 8.561625318207838 10.500774505721118
Rh 11.89777608395175 13.199643935152693 9.085457762952743
Rh 8.226286348492955 12.49570738515304 11.798334145202581
Rh 11.258096627082695 10.057120867669695 11.068185949391028
Rh 9.000620811779717 10.247901680338234 12.375082704304836
Rh 10.374029226079909 7.989834987794543 12.283860423351424
Rh 9.85868443750555 12.340429694766177 9.921220300216023
Rh 9.42944325591827 6.110247570591671 10.930340662743019
Rh 10.908192629523318 7.829602778047174 9.769061814086518
Rh 9.194536361721536 9.77243080650746 9.713520996642623
Rh 10.993227010651395 13.259189669607386 6.846020847976652
Rh 12.281775707688757 8.933913139250738 8.052721941207766
Rh 8.845123005463874 12.431361496687723 7.499922732066107
Rh 6.591339554693311 10.394690933831928 11.635256886640946
Rh 7.452382587070526 11.571493496150628 9.513382947431278
Rh 7.887502721102895 8.129522898152784 11.385015540895777
Rh 10.84835746637817 10.952728613660485 7.878735708941559
Rh 8.442567122072228 7.381652798615175 8.989547793565352
Rh 9.453620038863782 8.959308585846614 7.313012983493289
Rh 6.62287027299139 9.161947853528801 9.322583067861256
Rh 7.461703105250055 10.406198318891628 7.196322468332041
