28
Energy = -157.99524817 eV
Rh 10.40195091980438 13.378079135091697 15.088540651155538
Rh 9.459504402071731 9.651708270338752 13.233646984074497
Rh 14.273096539259873 13.403040433784321 10.177902102091277
Rh 14.5402285910747 13.866879831407726 14.542627620239301
Rh 15.282682739009818 11.605777375715025 13.27722755397708
Rh 13.051254217310444 11.834768930471759 14.698439422094207
Rh 13.32193737552877 15.323389413361022 11.699324123112635
Rh 10.087221850958096 13.012450726563383 10.66365670268605
Rh 10.646334721790433 12.075482795870702 12.868619646113572
Rh 10.406186118298042 10.395641935740548 10.963541483438238
Rh 14.488934183666778 9.370681151280886 12.641966069459995
Rh 12.11509297341597 9.91103328239156 12.984366015332544
Rh 12.274194955407598 11.822230273528136 9.864325505746416
Rh 14.775535536969272 16.191596926982754 13.451402459954789
Rh 16.977504509427636 13.24087398536915 14.142941701769034
Rh 14.665994762693662 10.909637475649225 10.658004202237219
Rh 11.947857274612277 14.397370954922183 9.696081208954563
Rh 8.292179412126192 11.576801884025945 11.797563724093902
Rh 12.212796285913841 14.061978783491003 13.51749414233513
Rh 8.467694552513896 11.739289901568752 14.461517934725462
Rh 13.11225866049182 12.181089666164238 12.125608196464942
Rh 10.789337121143728 10.794185499342314 15.083377907782623
Rh 12.666446569210763 9.359807645747214 10.550995732058198
Rh 8.928741561791615 13.913738876974842 12.9662169992547
Rh 16.30056356157451 15.388083353314837 15.364011736843615
Rh 17.202274906550137 15.608649342815509 13.053616330656935
Rh 10.700108277071825 15.21095025468619 11.789700377877361
Rh 15.524886763502721 13.979904729784819 12.187529774017666
