20
Energy = -110.32339845 eV
Rh 7.681935676077612 11.967106416067324 11.494944239762685
Rh 10.03382448237919 10.16430090094069 7.605077080570812
Rh 12.668604018558472 10.026445356538268 13.408050436719167
Rh 11.417300741732072 12.005653597471866 8.958943166843703
Rh 10.323686656888071 10.128276508861264 10.225667700252218
Rh 10.173359027344349 12.516626972079646 11.269055704025996
Rh 12.466626584040942 11.286321616871652 11.272452211057141
Rh 7.617185517166254 9.80580922140508 7.912853716095109
Rh 12.056695120756302 8.63149100554554 11.46800160863546
Rh 8.718332588579264 11.85856464465302 9.058852475604057
Rh 9.445137257213549 8.178375714683055 11.643773582027558
Rh 9.259559214268673 8.082344547566313 8.963498308108317
Rh 10.965052276632056 6.7427951428485855 10.251395945712835
Rh 12.388686590842967 10.437262702115959 7.022928638003125
Rh 11.888797135436578 8.644923535544617 8.856970473825655
Rh 7.734192519449743 9.691295652629593 10.372895054615416
Rh 10.33425537520498 10.43700711784602 12.824330907690554
Rh 13.525216738634635 10.567399524395123 9.194015206693877
Rh 8.337235925578522 13.971287629371743 10.31937790757807
Rh 7.946955320464987 9.91390455502582 12.868919535808987
