26
Energy = -147.1400893 eV
Rh 13.570345491394493 12.950377928088312 11.66224283098719
Rh 10.145510420354213 8.424575953977792 8.595406786813511
Rh 7.912665785232627 7.253106338516189 9.09324016203805
Rh 10.527969878930636 9.771215705371132 12.732658754979232
Rh 8.401347112445311 8.52804080043184 6.823865370682801
Rh 9.156929375629302 12.03246165347367 12.147920057117108
Rh 11.29747535255967 11.98465137960697 8.331832053294333
Rh 6.747598829239662 9.356041487754052 8.540241827807025
Rh 9.043001671829733 12.677914053588319 9.639197624034102
Rh 12.260457223316235 7.115362514908982 8.72083853384809
Rh 9.466133756167062 11.22840713415263 14.50799935643595
Rh 10.14326526760193 6.2978421389028 9.990923205058726
Rh 11.217472129229941 12.920386205065329 10.88681915320571
Rh 12.665757872793368 14.011002401039255 9.20865422615772
Rh 6.497385511613049 8.539107174419225 10.999333992532385
Rh 10.35579215560162 10.52368130182821 10.22176713356294
Rh 7.932362979171839 9.873509900687793 12.908887615574162
Rh 12.613052664639985 9.579608306725465 8.947150888091816
Rh 11.105045509070733 9.934397055909061 6.854662263756962
Rh 13.610117256346912 11.74563051438363 9.415165496661295
Rh 11.54435517373565 8.273809706248683 10.90364302977237
Rh 11.557110801479038 12.082450023362984 13.234646582560563
Rh 7.752734824346157 10.616159626445267 10.472205847905377
Rh 8.950222735225859 10.692233859743009 8.055089827932717
Rh 8.99431258456727 8.378319842012818 11.160482667429184
Rh 12.654527778122775 10.574780222275045 11.474278014134327
