29
Energy = -163.44812969 eV
Rh 12.215769484134679 10.64672386182503 9.808793325991742
Rh 9.648861757745598 6.923570845319189 10.229899142732107
Rh 11.591126964171066 13.707985722633788 13.881154063283516
Rh 11.794194961172094 6.250277593827901 9.06804072201945
Rh 11.895476302958818 10.940524343829958 12.380155905383779
Rh 11.548972571117496 12.8336654917969 7.418379928253531
Rh 11.190993097191352 11.444964457398823 14.725857407786977
Rh 8.738671367499084 9.015476923344124 8.86663513934178
Rh 8.05331948739215 12.87296679833387 11.154476830414229
Rh 10.306016452787562 10.862042730781345 8.089701235207745
Rh 11.036253506483618 8.690824269012916 11.392512543128666
Rh 10.580511406641396 13.128150005532564 11.706048567856277
Rh 7.176860900068552 10.50551437986047 10.056068559890484
Rh 14.716127167739604 12.850895343972898 10.106893688759998
Rh 13.30025593635585 8.8514313915154 12.636242959536585
Rh 7.409799469531504 10.853176523106868 12.604335698796358
Rh 9.683429772161684 10.832601672980257 10.647961677299028
Rh 9.719643785822242 9.976987649020145 13.249767550498087
Rh 14.199724328644505 10.708430722486211 11.17664050788787
Rh 11.298371328084473 8.620730267718821 8.619303749731733
Rh 9.155784605816553 12.440043498022227 13.59395898090467
Rh 13.263031865423226 13.031162908789542 12.148012209539747
Rh 13.817268023466045 13.701222958234942 7.9607463681911765
Rh 9.744410192631705 13.027787886657421 9.282180105039373
Rh 12.242659301358225 13.077520172676206 9.799777540710169
Rh 13.135109861864038 8.060486837278892 10.260036296627744
Rh 5.717384966487044 12.101727054512764 11.243555341046333
Rh 9.622044611013848 6.913892567633623 7.72587573619375
Rh 8.40390050989603 8.702428552175354 11.483871745477897
