23
Energy = -128.28250313 eV
Rh 10.050824745206162 13.605235154597528 8.918738676614884
Rh 11.174227680236644 11.90783979950251 7.2007862015426305
Rh 11.434028245436883 13.6966942242056 11.273082638032884
Rh 12.724354615528952 13.531127057709963 8.902714672159776
Rh 9.160923219685827 12.271849692710171 11.052149560761263
Rh 8.982898911431853 11.124468387447772 8.613573986743399
Rh 7.538592998277509 10.157867949200508 10.712147021631713
Rh 8.65476276643447 8.46415391913834 8.96480083666829
Rh 8.675002859498871 7.989974107953692 11.796080431467503
Rh 9.013936053411147 10.393619195367085 12.98772356650274
Rh 9.956526300710799 9.798580154140948 10.634443064861111
Rh 11.089446892256012 9.428686365917052 8.316072882994435
Rh 11.325728712874202 11.234400109753118 12.123705460547997
Rh 10.082695398187605 12.841013076235267 13.493203393994696
Rh 11.308551375724246 11.643673307267482 9.673120456602485
Rh 13.53754270403313 11.999549836706567 10.975247382434542
Rh 13.322251883487308 10.961484574971367 8.456983763108445
Rh 12.75804497039232 12.776928525020566 13.441583435987905
Rh 12.57345878064401 9.523425484561294 10.568508796075303
Rh 13.354047417332286 10.198056481516153 13.024830792139024
Rh 11.223772864131579 10.677746588171956 14.549402050788597
Rh 11.121050234129266 8.698057512393882 12.688311252864487
Rh 10.80519079078788 7.53469600659054 10.250164539079396
