26
Energy = -146.38403606 eV
Rh 13.297836301691236 11.894707856542968 9.615652987922267
Rh 12.906830757520023 9.919864352195518 8.130332156858001
Rh 12.787599536016272 9.553045903549595 10.707975400671511
Rh 11.494055086129086 12.00765233460037 7.348455340083199
Rh 11.949928078732693 11.817930969809899 11.734857496702174
Rh 10.10242429322298 13.176187202831697 10.033627914686289
Rh 10.940381552921545 10.949935056415624 9.582615462649402
Rh 10.877821132829386 9.687113181154778 12.625099279219004
Rh 10.530248694151327 9.652274782568242 7.347793934973097
Rh 11.721940043517744 7.8151073555037645 8.936199132426658
Rh 9.558537015849552 11.973004135309996 12.292843966409478
Rh 9.014026639977628 11.662310838761673 7.813383607155494
Rh 11.720785577285836 7.299721307751531 11.433854308720564
Rh 9.996879512321467 8.871193116676801 10.463496992462565
Rh 9.900145001257686 7.239543798104196 7.237339046707833
Rh 8.16894244446057 11.638476462675916 10.236978780568256
Rh 9.260763375771308 7.404657856047072 12.387533742374286
Rh 8.146764389848906 9.372456972810301 8.95201921955853
Rh 8.297187680161594 9.744723603193261 12.121359567747362
Rh 9.58225761838112 6.533505380745956 9.776533174848327
Rh 6.55452311400434 11.245522529443965 8.300139716506212
Rh 7.648136470688575 7.000045178671037 8.20435315947917
Rh 8.246856798990704 9.151346047096222 6.523069192889547
Rh 6.2271998833574145 10.091354156261959 10.648693294431533
Rh 7.2943817381755895 7.701243350701725 10.692254716733975
Rh 5.7394310114703595 8.549743847030266 8.74099945431021
