26
Energy = -147.35561283 eV
Rh 11.782914094265605 10.897651447618728 6.636763219806825
Rh 14.641467086987074 9.686873677808915 10.851111401670662
Rh 13.369762021779614 10.246686280362447 8.7010603464522
Rh 12.844304070965311 11.437140966980907 10.97395779257413
Rh 11.471655895134 11.954018688300554 8.858167448304314
Rh 10.874053711651548 13.157604929085267 10.989062322372073
Rh 10.004602117482328 12.957229675944129 7.112888935917757
Rh 13.002514826423289 9.682860872240425 12.83653092904634
Rh 8.936927968877567 12.351999857028932 9.402914333926127
Rh 11.14097420278232 11.448031496321219 12.909878287942187
Rh 11.071998752270947 9.272441392815637 8.36624994076967
Rh 12.322131793588541 8.767586864782675 10.586567362350493
Rh 8.740463626203367 12.274232275503172 12.078353860064459
Rh 10.238300238710725 10.492315490584701 10.721842457933612
Rh 9.245731740070577 10.638274559698154 7.260956977203562
Rh 11.321242163793542 6.860415484156899 9.1830204807842
Rh 6.686631611341707 11.29105514337968 13.131409751775772
Rh 9.01418337674099 10.603600374901191 14.030015270385741
Rh 11.444637569034622 6.768556219911183 11.783313015935143
Rh 6.988229823587817 11.573791903469433 8.044009950459767
Rh 9.14269738943312 7.755843110230846 8.049299229173256
Rh 8.092017241253357 9.601783743741914 11.912450584990104
Rh 6.800648762205345 11.435182082664245 10.583826593090748
Rh 8.103297811738706 9.670473803658792 9.316153035759097
Rh 10.52002192369953 8.922331852593562 12.762999134298369
Rh 9.44891836723601 7.855834840095056 10.599232755394159
