26
Energy = -146.59822242 eV
Rh 11.646186084796536 7.673073401643886 13.413972879734462
Rh 11.9348623152191 10.059605338444674 12.977936531786808
Rh 9.929211861527362 11.51250971232325 12.228017590626969
Rh 12.31125004035393 12.484843213391953 12.611090892997893
Rh 9.657134585695674 8.948756028651204 12.425682365995081
Rh 11.796320748833159 8.376029820362191 10.961984109305627
Rh 10.09737932223643 6.473830843258613 11.798880536134206
Rh 7.647906949530064 10.21714770627869 11.37391710770831
Rh 12.046513254224946 11.02691638251274 10.585666179784887
Rh 8.74729844762601 12.200258218497856 10.143640400139644
Rh 8.06354854870193 7.696128604800851 10.886685592352498
Rh 10.944805774078144 13.317414340850865 10.622227016269395
Rh 10.051948932053113 7.170148852844994 9.397442827271936
Rh 6.060422323413631 8.652871996079726 9.819989221119066
Rh 12.08457207899618 9.512378180221958 8.610376862038532
Rh 9.723418754055986 9.761028352706367 9.822906445989025
Rh 7.221869287439822 10.679920366067005 8.850030927047351
Rh 12.436391984122627 7.08250515504537 8.829636983472183
Rh 10.521782360202392 8.043344336692861 7.075247661515281
Rh 8.44669783413951 12.609183112473977 7.663205316236701
Rh 8.076489999034289 8.209070480348066 8.207466900870138
Rh 10.807212414191651 11.83284545098976 8.45419513423067
Rh 5.913899842885437 8.907711783335227 7.260491159905157
Rh 11.499936588382898 10.4438413049301 6.391012326427191
Rh 9.169253183787252 10.199161482529004 7.1256616096797885
Rh 6.965745248715362 10.920200562417012 6.3217811831515265
