22
Energy = -121.52216897 eV
Rh 13.501889960598513 11.341943892136987 10.242039573672526
Rh 10.092349716619234 10.812756766763336 6.849075674564433
Rh 12.02766229129691 10.571164251304724 8.334161966393927
Rh 13.246140467022826 8.834697016158817 9.590392846379222
Rh 11.884301816204198 12.992315949542252 9.037958607206393
Rh 13.073617557635098 6.623882732178438 10.40106471544456
Rh 12.112937689000713 9.713149721672561 11.635023945039
Rh 9.728562116674029 11.559403555681541 9.172080464429825
Rh 11.227068137444315 12.100864737785761 11.209610999359857
Rh 9.789015552259972 14.039348508594406 8.443607281809006
Rh 8.951580612778208 8.914025343475986 7.799552902987735
Rh 11.26693448966151 11.125408573751038 13.619245336821415
Rh 11.165642038960536 7.340311079986004 11.511777322269934
Rh 10.615187794984394 8.85642468238182 9.628787278456944
Rh 9.27380622152207 12.305648142902458 12.752691833101627
Rh 8.761471225208727 13.40573544801181 10.51901352577898
Rh 7.514296210115318 10.522896425563458 9.222032572777385
Rh 10.047276712853575 9.01774631684742 13.040334880590775
Rh 8.879011079027274 6.942927965565751 12.026170699115426
Rh 7.053521221441329 11.883157777347517 11.293293903774886
Rh 8.193745147975052 8.24322875602188 10.147619856373144
Rh 8.996427593556907 10.269532671150522 11.303306362452807
