28
Energy = -159.58835241 eV
Rh 10.100297610526734 12.018014412939403 7.874536693206644
Rh 10.932342345762756 9.850108786898817 6.652873645257438
Rh 7.6188211464972095 12.153489815042338 8.363136473898207
Rh 12.760495154200854 8.628643083133582 8.047466827607337
Rh 9.20555429243202 14.196249357519331 8.793043872153794
Rh 12.624042815678125 11.259189248925644 8.189348341099096
Rh 11.839225445745132 13.74008213377913 8.576660344168682
Rh 10.135681090860864 11.9632318752633 10.44724644087404
Rh 8.644227716779442 9.834047657360436 7.876147968297042
Rh 10.745453851739578 9.890746576221886 9.262583702809582
Rh 7.948186950590727 13.048939169161487 10.74889951861997
Rh 11.553093410174295 10.545471201255404 12.204671248883812
Rh 10.781729562883198 14.430955515296388 10.760222031995895
Rh 10.829485487400115 12.852510672756887 12.792162973432026
Rh 13.059728509842431 9.776301818871067 10.32206650950917
Rh 12.574797406352541 12.388704918463272 10.58898605836311
Rh 12.499960648712872 8.283813674221067 12.472146843270778
Rh 8.986073149377546 11.087275509130313 12.598576991286135
Rh 11.607556819834079 7.596267220373904 10.16476021362299
Rh 7.782732041080635 10.495004106799273 10.301538605962891
Rh 9.613394142820844 8.840200859081065 11.234568446264612
Rh 10.21483501657649 8.961289405411836 13.648994631061093
Rh 10.15921279331745 7.705910537910884 7.989039885472392
Rh 10.552330271694283 6.6493741151988175 12.268302296525809
Rh 7.369294527712217 9.159717543902094 12.394708499596764
Rh 9.604319757412133 5.976562875778592 9.938163062497411
Rh 8.09187731083096 7.935786814109306 9.478397163148966
Rh 8.075298307486886 6.814479141882695 11.832262487821117
