20
Energy = -109.88080238 eV
Rh 9.054936525836416 12.610640147490408 13.047427010103734
Rh 11.000775327657383 12.79525344501311 11.401216457193964
Rh 13.247654741138891 12.9044234617227 10.51342024919665
Rh 8.563764281918072 12.933228371334554 10.562138140650314
Rh 12.660580508872021 10.609706005935584 11.168816105209372
Rh 10.243220654967086 11.615944124466862 9.3523376726079
Rh 12.398286795602663 12.374611525280423 8.324733370954817
Rh 10.419503391209691 12.39657770946005 6.926411241387499
Rh 8.36336746658371 10.650656714458597 11.529792911413738
Rh 10.239890245837728 10.016148716632937 7.133567906713868
Rh 8.647311541294192 9.628491613029656 8.953083962028257
Rh 12.881826085874572 8.214177743556458 10.26472413668636
Rh 10.55410748694424 10.689364802470566 12.785842318821214
Rh 6.954978519290489 8.867638107475498 10.47566889313149
Rh 12.19550668231776 10.014722487072287 8.679895312459156
Rh 12.014887187245764 8.614257106425933 12.589322179250635
Rh 10.42594665851042 9.121438440011529 10.62354717144849
Rh 10.75098877190643 7.902591351374353 8.472843596802951
Rh 8.676850725347686 8.158516602315744 12.007206008484761
Rh 9.971544983327549 8.576582315959183 13.967778051239598
