21
Energy = -115.86095195 eV
Rh 11.253853938549147 9.30302975254591 13.569962099659609
Rh 12.155486149172983 10.51793312143439 11.559980771452128
Rh 11.594903727357876 7.9504970713463194 11.371569088579141
Rh 13.876067317407939 11.425617173349638 9.982388644111714
Rh 11.764541073288237 7.2684766858313266 8.909253026344121
Rh 12.108074169532808 13.012492627131959 11.082495566966061
Rh 11.830286999644434 11.972358680421182 8.712786288098666
Rh 7.377310670163336 7.596255315700444 8.587699270512255
Rh 10.595293167640683 10.704752241353834 6.991305246341823
Rh 9.951347782383891 11.917353058832466 10.397315251188845
Rh 10.302115397984718 11.680296323345079 12.936966812923464
Rh 9.626764136284036 9.54510365704458 11.72732462275604
Rh 11.000027418206654 9.67915796414849 9.254691486353313
Rh 7.921007906631884 11.41362480958598 11.85669246951227
Rh 7.575937788903039 12.642815421121597 9.601820840750388
Rh 8.676878224376795 10.739848535585695 8.575322240069738
Rh 9.439810004627526 7.6326327108773135 10.000863096217522
Rh 13.346012801750549 9.01973787459031 9.772057579490872
Rh 5.82782413090151 11.195854486136048 10.509755082727809
Rh 7.507913195869104 9.436117244048422 10.210434820148418
Rh 9.407193936695966 8.450739443213388 7.574369465749878
