29
Energy = -166.81470854 eV
Rh 10.620568998925389 6.368022284601268 9.818638466510528
Rh 12.128054186009672 7.708009319979055 8.029442385971404
Rh 10.193676757920404 7.3561971863222215 12.140964805749482
Rh 11.774351042335969 8.61451801859555 10.440918584180958
Rh 13.148412437383284 9.974710083261328 8.643107803897186
Rh 11.034289810839075 8.829736958969573 5.96642279258994
Rh 11.220013075105978 9.639392111664542 12.794944953171736
Rh 12.747518548116293 10.992850334975833 10.988626382593825
Rh 8.057490563363814 6.185147465886645 9.493573094801793
Rh 9.533342848920467 7.450879900745202 7.67979725839887
Rh 8.672319653003294 9.684345125202961 6.58315489889211
Rh 9.134429495394327 8.513454850713902 10.093787444007177
Rh 10.587260323635235 9.803193435703509 8.37241391896157
Rh 7.627829847214438 7.0878694772179625 11.755567753414445
Rh 12.056306239599403 11.011714186331625 6.515953058121718
Rh 10.18284783446095 10.843955630062977 10.767210522090583
Rh 6.7599673951019446 9.31056310184757 10.709423713564474
Rh 12.184923790347048 11.934014281283414 13.277066253346343
Rh 9.719481239469268 11.933834843937623 7.208158871142911
Rh 8.13557498578057 10.686568817465846 8.918998316079257
Rh 7.157048337591235 8.341231267481167 8.376497280237583
Rh 11.715500856649712 12.160385160185088 8.906937530708854
Rh 8.637086339710025 9.434401347254356 12.546476504467334
Rh 9.316081482948322 12.943686932755368 9.551369277151226
Rh 9.648703407677278 11.69816166461046 13.198990307327293
Rh 7.789074046947045 11.590992470840419 11.357458986796674
Rh 11.314159482546746 13.17309307910674 11.22975134256811
Rh 8.937479907695076 13.780899600117731 11.914492921082838
Rh 10.769239987460562 13.9870435961968 13.625341085994295
