29
Energy = -165.88156937 eV
Rh 10.345703129769113 8.694416235702695 8.341195208575321
Rh 11.39267461836243 8.60846821191471 10.676861353271015
Rh 8.20161193184715 7.851833100328495 9.388055293709016
Rh 9.262353022095812 10.156247809939684 10.147409754199497
Rh 14.427213745878952 11.996381816375681 12.332502589648717
Rh 11.78606903207112 11.894226275914837 8.218479375612704
Rh 7.946403160387257 8.431502027395274 11.88264289359031
Rh 12.166269361997681 8.511529094997238 13.10809893172595
Rh 10.086233540319139 7.18558139746123 12.284712475594706
Rh 6.542190836269174 9.577341000668177 10.080372807220357
Rh 13.575207434192459 9.841526994769884 11.362608835996781
Rh 14.383452655861966 14.150538358164566 10.997063105890648
Rh 9.901012972649134 12.40405423331248 12.43146760433459
Rh 7.962060138279152 13.514225762510188 11.214405628078863
Rh 12.116343783717438 11.082194731123437 13.247619689120434
Rh 12.229376961857202 13.85516826449032 9.729508278537377
Rh 9.988594916625031 9.804506932678198 12.692597429529894
Rh 12.318931057981812 13.42138966631856 12.286634031467408
Rh 8.144393544856673 5.9736148127933575 11.08530582469439
Rh 10.330643467497326 14.663130336712065 11.297223377846523
Rh 7.741606928413921 11.037758844987113 11.964272694309184
Rh 7.431335733471886 11.796234788648585 9.374454172063189
Rh 9.836070581014782 12.80702667345594 9.65889686849978
Rh 11.588153456324225 11.266334620205095 10.752383064984485
Rh 13.937500567078684 11.895191211558728 9.786938808034336
Rh 9.425918878871283 11.023285890051614 7.756953661965897
Rh 10.295726382259646 6.485970476760437 9.829466309890117
Rh 12.804208020278057 9.703176474971238 8.846242027825875
Rh 11.508188582293176 10.031374262205482 6.596341516726883
