22
Energy = -120.79087805 eV
Rh 13.048177792243548 11.64607230797892 10.888396529524174
Rh 9.66045073737837 10.077269621633624 12.502235625127186
Rh 9.13155573663138 8.797182159417073 10.349734510631622
Rh 7.791532584577659 10.716852418328436 10.979609026802216
Rh 10.426291514400482 8.089061168163242 13.629382249548284
Rh 11.410677541864608 14.566781962270355 10.876533093817157
Rh 9.485601395097431 14.117964542631352 13.193116155554938
Rh 13.622239033720149 13.907100396885625 10.087604380184652
Rh 9.215125591480879 12.429634956437583 10.171404330676957
Rh 11.546873191402572 15.316575185038053 13.236543184662612
Rh 12.158147594810544 8.29103411981774 9.521250422200971
Rh 8.96882464519233 14.704318198322689 10.910195504764422
Rh 14.632774638292577 11.133076968211478 12.70079986293019
Rh 12.058647354170004 8.856440327291708 11.93715248592407
Rh 14.165472802193952 9.409298408836177 10.822991396817354
Rh 12.93210743486671 13.365720213885787 12.752713540506097
Rh 13.067437472028146 10.467004767994913 8.627702285391093
Rh 12.285166809413411 10.810539906291819 13.352032708225446
Rh 11.56608550543035 12.698845757729147 9.091806579762405
Rh 10.457717417975882 7.071035965390719 11.359631829603329
Rh 10.683308593617575 12.32483753240086 12.155800087772146
Rh 10.90337687697151 10.440213807519255 10.044629559605882
