26
Energy = -147.69464184 eV
Rh 10.880298004242045 9.871086289755084 15.689230491064079
Rh 10.479553549397279 12.02048512796874 14.448150139159122
Rh 10.142466975109318 9.719233932157351 13.368728782284593
Rh 12.589835611898886 10.538572201665543 14.02947621470626
Rh 8.823316232154419 11.906801952643507 12.503471818777665
Rh 10.043304168946852 14.01867980093176 12.962642753745149
Rh 14.10861986397786 10.888116966613065 12.065736314750213
Rh 12.190226845589825 9.179362094282117 11.901686031049676
Rh 12.202659492198382 12.605575143882321 12.567760768299479
Rh 7.967567389612413 9.541405349462973 12.146124530273331
Rh 10.033536208564525 7.783286624922659 11.79093592766655
Rh 6.733739038522265 11.460659240794126 11.20689365099666
Rh 10.854126695431479 11.134169779578174 11.208765042067816
Rh 9.309639425277492 9.51343167401074 10.116279916637689
Rh 14.025107921626558 8.812414590465066 10.232926219017545
Rh 13.963136746291008 13.23679762258422 10.858481327145626
Rh 8.150595041997393 11.464176580080052 9.278469691607365
Rh 9.622502093338245 13.166787271536828 10.413324270326488
Rh 11.66827674142702 14.626910353909556 11.126360483221715
Rh 11.564139998118732 8.238076488689929 9.676099225079126
Rh 13.694738087992102 11.138630057034675 9.488565922551476
Rh 11.981920653091393 13.012903754687395 9.298514199397475
Rh 13.196449806414426 9.27289854102622 7.831906096826326
Rh 11.20992869096608 10.494789796853867 8.698984448925026
Rh 9.946639863842412 12.498639948115061 7.906543135362624
Rh 12.630800526591171 11.869234488968418 7.197068271680302
