21
Energy = -115.85524914 eV
Rh 8.063769737322895 11.008370631047415 7.05817109551671
Rh 13.036397946527748 11.303930971850358 11.480410626189043
Rh 11.542121626506441 11.84778641340762 9.690844739711578
Rh 10.49869237185951 8.68520962005199 13.85370624138825
Rh 10.479842732484553 9.703734630822098 10.459727691696735
Rh 9.016513981157855 11.574147027299286 9.278529528124576
Rh 7.569597266356906 11.470457489837534 11.306660795158392
Rh 10.015013996594535 9.609921581271243 7.779794345088467
Rh 10.472775542176322 7.456301334815562 9.22160112003874
Rh 11.857490116603968 13.227621710829922 12.516646907936355
Rh 6.654601507703438 9.235989464891144 7.8332381632623465
Rh 10.777437203863002 10.933206168799815 12.727287409194153
Rh 7.997028182094727 9.199729279166343 9.85716805334633
Rh 9.758864938337819 12.74953345965381 11.400204677075669
Rh 12.618884836567405 8.668226997634026 9.516556012180267
Rh 10.062970066496137 7.4984793686638795 11.654923716860559
Rh 8.494887071493654 7.665432477697709 7.76934535574004
Rh 12.250595997658738 8.916262439906747 11.979048504042813
Rh 12.402985850429372 10.407754109839342 7.85193396990238
Rh 10.508731556750199 12.041209989405806 7.286714967660298
Rh 8.709524954230522 9.568031157360737 12.310995571249979
