26
Energy = -123.93022264 eV
Rh 12.607586683353272 11.795385830341017 8.84448406955269
Rh 10.436809548216031 11.395446646925153 7.424540954534346
Rh 10.088653513890355 12.267409451294254 9.85345725004917
Rh 7.938371080917285 11.457674144227424 8.52576091351396
Rh 11.9989241196099 9.245761363401867 8.210576035918447
Rh 13.165745481007736 9.976262337214152 10.763813338833264
Rh 8.283712093770374 10.822059399250854 5.976411902241558
Rh 12.321292595519317 12.512255133078503 11.293064804515838
Rh 7.8336255875205785 11.399656906517096 11.129695085041085
Rh 10.651785968243088 9.80744507964026 10.315647283333957
Rh 5.996521391704869 10.102896843497566 7.2982340910775125
Rh 9.861478786515026 12.453427951367075 12.487693244067762
Rh 5.866853285045923 10.220470098761467 9.856939289498762
Rh 11.831408172047086 10.71041620418102 13.095464251145543
Rh 9.872952472680861 8.904672821040318 6.707557761300039
Rh 7.449736439491784 8.261603009380703 6.183963032542442
Rh 12.32636256400036 7.4607142441769465 10.13646313108309
Rh 8.656678637659153 9.036748355545576 8.960996222922534
Rh 9.45579021621595 9.890631564153898 12.588069720103492
Rh 12.360756312078497 8.237509665318848 12.62550670497608
Rh 10.34838163786227 7.038990794593253 8.507657380341978
Rh 7.56160035824735 8.653707696576422 11.248666620007073
Rh 10.063069522053496 7.53413602852686 11.590478329861977
Rh 6.4120826806028 7.826719611120289 8.739606199096936
Rh 8.096589151307487 6.155818396604194 7.513498305110422
Rh 8.27877707594472 6.382539836233002 10.100045027493175
