26
Energy = -146.11581323 eV
Rh 11.888422376845774 5.739653833714377 11.924863944223107
Rh 6.485583492886021 11.575447352211977 8.81118162228907
Rh 10.83637041853636 10.830359229343392 6.645918307767866
Rh 7.822682679964004 9.481723328054462 9.323531039869962
Rh 12.920873300983715 9.069573984121204 8.990959229468142
Rh 8.772317338934693 11.957522462991884 7.729394398456966
Rh 10.18018181451604 9.446040224190456 11.023245017703035
Rh 13.05448348449216 11.189736938989885 7.847790229131808
Rh 7.5854710136852415 7.41543095406522 7.743505637918432
Rh 9.027496404455066 7.213229990578516 9.661023945746908
Rh 7.819183216103278 8.466038420768 11.657264286333326
Rh 11.165253724736253 10.186753789290519 13.290181581090197
Rh 6.86458542982973 11.57167317358679 6.227192834041114
Rh 6.126980470829285 9.483129577667766 7.346301718392757
Rh 8.551319007088168 11.758967400090862 10.269719406665194
Rh 10.818621918184252 11.451692750481062 9.079725208706169
Rh 12.60498367036125 10.21256921721874 11.053393357839608
Rh 12.232307633856959 8.097834745032557 12.449592726952304
Rh 10.73721997099913 12.008374924983851 11.565870028331227
Rh 9.862312735318929 7.164719882202485 12.142739941550648
Rh 8.576336459663837 9.568033360405582 6.824151517060922
Rh 11.552395482240016 7.285009533819901 10.059713899636527
Rh 10.437347896469229 9.034051902403522 8.4397785241179
Rh 8.678299844723586 10.727376408322504 12.617010906603102
Rh 6.489518323859498 10.628936726195349 11.265147027859829
Rh 12.914019030179634 12.440687029011565 10.015370801985666
