26
Energy = -145.04443021 eV
Rh 15.135485469105644 10.921092861864429 12.611259467855819
Rh 13.34836868105012 12.68192120269458 11.578108918541082
Rh 13.205024938483328 15.104315298416228 14.527553908291953
Rh 16.336752447857307 9.563481391110228 11.000085111637686
Rh 15.149795724523733 11.428231968829504 10.033145179721853
Rh 12.61419845757455 10.547231197005793 13.019434078711834
Rh 10.212501305747223 13.152558739566828 15.470820446378658
Rh 13.905905985565125 14.736569032319254 8.114473853213838
Rh 13.824948503051615 9.44654996747957 11.009735581869924
Rh 10.394622865072055 11.700663915097017 12.25481256802609
Rh 11.88293562036647 10.869583339328262 10.43765465607155
Rh 12.04563525862502 12.985298798300215 13.740029378529194
Rh 10.642368617158231 15.243143659687846 14.11135313266449
Rh 9.566832731821107 11.062512154791994 16.695759921044182
Rh 14.613939111108554 12.97935603973594 13.98603034419516
Rh 11.583600446988294 10.858232783525986 15.284916816104937
Rh 14.425854809023 14.864149199886636 12.256405702363269
Rh 11.035147444177573 14.190943336821126 11.803403632126974
Rh 12.742225630624173 15.011194960983621 10.236760366194428
Rh 12.982994858376138 12.604983382605084 9.109018762653822
Rh 12.314734093122983 16.28943499144967 12.45388514269261
Rh 14.159753841280633 10.710301866897565 15.031573935690917
Rh 8.932666927000634 13.532913025070023 13.252823811197375
Rh 15.16112030591886 13.837723786598668 10.009974348099112
Rh 12.997901291058783 12.866339801521562 16.033615387333167
Rh 9.13965941218615 11.149012527819119 14.27179957416753
