28
Energy = -158.58919288 eV
Rh 7.924082125188435 11.590192259362524 15.838973949770576
Rh 10.703753443206939 11.522614811354225 14.31470013085657
Rh 12.520613577872533 13.107259244414417 15.279737365020937
Rh 11.991304331215968 11.771531942982072 11.936230230188984
Rh 12.708838527980427 13.196957336091605 8.150250139660656
Rh 10.037997807803631 14.061768518295557 14.43413309830791
Rh 14.383224305674041 14.762751452524427 9.426867699973108
Rh 9.495809283561389 10.952695966810518 11.785151759909475
Rh 14.199616204970361 12.68645961809578 11.019964317779323
Rh 12.176047775286651 14.082348243076336 10.46899896944439
Rh 13.11693434230887 10.926792404667363 13.983639991624342
Rh 15.478554469050955 10.732961216255168 12.96442479496754
Rh 13.832511995317548 15.260832389359717 14.48822103971921
Rh 10.725787362604938 12.067034816441153 9.733410066829993
Rh 11.20666174933178 9.606522341303233 10.409713326878292
Rh 13.119302936827673 11.037513850995643 9.428470499159209
Rh 12.09003335837391 14.245136739844064 13.052734329709347
Rh 15.100550610290092 12.392295613300401 8.626417633127124
Rh 8.788487162935695 9.988590720893088 14.110138079902095
Rh 15.58191932655761 10.65761516314197 10.438311449701668
Rh 13.490384805904862 9.710286064264926 11.713676961895322
Rh 14.567056854654561 13.027305365843981 13.651953955529923
Rh 10.018919887087677 12.574305883648945 16.42946424108404
Rh 10.018516139824616 13.48476156968099 11.847376267682735
Rh 11.22285998028346 9.389432561517888 12.964254536847573
Rh 16.448482624601585 12.849532437402997 11.9703789116971
Rh 8.292215780442273 12.399508785981897 13.51457511781099
Rh 14.286180049165296 15.012935712124637 11.974562439098648
