29
Energy = -163.70206625 eV
Rh 12.971707650211348 11.314978099398395 8.214258592917462
Rh 9.705908139449864 13.066857328021761 14.74757849757925
Rh 13.340457959037854 8.038796984562754 11.97670134818211
Rh 12.131130964379656 13.551277453168058 10.820317685012233
Rh 12.112085564301173 9.633510910324482 13.198698235593348
Rh 8.891960659811188 7.7118934779263 11.2390920197931
Rh 8.367161867762661 11.069595828618953 11.47383059009581
Rh 14.802080620160531 9.620334146843069 8.445201123027058
Rh 8.393706666167729 12.01028448005655 9.110267801588002
Rh 10.500908937915971 8.47811760904 9.618123381728063
Rh 10.504150706926769 10.73098404331269 14.773554296499274
Rh 16.13329449570933 11.29190069082338 9.59448731593995
Rh 9.690763520896256 13.998909543110427 9.922717477851025
Rh 8.078358872230154 9.414041024386927 9.695184380315277
Rh 7.667497348196458 12.1707246770279 13.56358681682541
Rh 14.209477109140513 12.74291871784991 9.678193846546627
Rh 12.034466210585892 9.026159166303461 7.620364756177131
Rh 12.824026175534492 9.319072141777815 9.962919323555324
Rh 11.452841992376808 12.200252322656972 13.007416716499604
Rh 7.259360953858575 13.335229929340809 10.994030420142398
Rh 8.097303403352951 10.145517292049984 14.761890375323182
Rh 9.411714143396287 13.363440728352948 12.228538146678334
Rh 9.399799254144083 9.310514755187015 12.901960423732149
Rh 7.443272772126545 10.228955523224984 7.509659519772157
Rh 10.838104416768454 10.48273602409053 11.180489390277408
Rh 9.860746452983022 10.197766161002706 7.773136398879129
Rh 15.027524287129813 9.694617039094672 11.1392646337621
Rh 13.272305833439688 11.334358983433727 11.523252624883417
Rh 10.925066575353311 11.983446626989345 9.254385083904856
