28
Energy = -157.73815869 eV
Rh 8.726333905352266 12.670997158470438 14.389499047477576
Rh 11.307167105915097 10.48547779367563 7.164132841900435
Rh 8.856619852591887 14.645307907682193 10.077328355213728
Rh 9.469860531882258 9.613333514998251 5.946908862059206
Rh 9.181097929267528 12.318125061088626 9.630679684311845
Rh 14.94401369515231 8.925980526208956 12.555218455709628
Rh 14.724036774120183 11.103731100421362 11.38240268898869
Rh 10.576639904346345 10.858237092871109 14.342325980867466
Rh 14.930301209185654 11.12518924771123 13.89826026687957
Rh 12.270910182208317 11.495875764991808 11.87757172404207
Rh 12.810742087613225 11.985547383429402 15.001473592920286
Rh 13.547183014390951 13.171717053833452 10.26325429743882
Rh 11.254434361255136 13.432291172961333 13.56614171564257
Rh 13.208275358193116 10.000298344815981 8.519117738680443
Rh 10.626489062705238 9.473868915427724 12.100690331884627
Rh 9.6298301951586 11.930041293745447 12.059839436760832
Rh 8.608882931139497 10.037830046190152 10.583325097046412
Rh 11.122871283170598 13.768006399512291 11.004531653129007
Rh 10.845691809685727 9.41886698636001 9.528723394408404
Rh 8.407681151929356 10.126785411045114 13.263750882317547
Rh 12.963824211195805 9.216242659854803 11.006191076133279
Rh 10.646514007539185 12.843534647392259 15.97203185587988
Rh 9.105592249837397 14.323423553685474 12.482526444390885
Rh 12.800120815754935 9.760341021222526 13.650067687548319
Rh 11.572392394607961 11.764395149147347 9.367060663689186
Rh 13.737133000867642 13.183403062250415 12.932226460601312
Rh 8.878660491648631 10.406973582702753 8.112909927349246
Rh 14.905813897285112 11.573291562303359 8.980923250727793
