26
Energy = -146.78488579 eV
Rh 11.327501884996765 8.338496292494014 12.435644386603283
Rh 10.99132102684756 6.745317210093662 10.42351770331107
Rh 12.56730461715278 8.793696491806982 10.195653239763073
Rh 12.710231797388287 9.865839175675392 7.893709488430816
Rh 9.2745891558617 8.530121861742476 10.7430723949722
Rh 10.801593822684888 10.410262803295995 10.915418903206694
Rh 13.216214221877294 10.104512242024231 12.317662529412202
Rh 10.93316348167343 10.381176691762466 13.666192926625648
Rh 10.73450516384602 8.28792150231922 8.529746284070383
Rh 10.156429873264555 9.62158890222463 6.566007579818099
Rh 14.128815203122686 10.73579193841639 9.918186141759598
Rh 7.272588571505574 9.931056327020872 10.761329310046476
Rh 8.526328771163847 9.722223318275596 8.507227951822555
Rh 6.800915860694638 12.30166427473094 11.547575749760894
Rh 11.479868757598158 11.8071462113946 15.561006568533772
Rh 12.805250411912665 12.404096985425507 8.42565234832834
Rh 10.630880573579075 11.175501128441331 8.450990050388112
Rh 14.730139292070666 12.07210927056095 12.06768353372006
Rh 8.849216138975619 11.15771395634669 12.489110262818302
Rh 8.73952881742418 11.795500437394457 9.954763620120957
Rh 12.736002309386496 12.38979857157786 13.495835138411145
Rh 12.470871588096934 12.347835277218156 10.941293395691766
Rh 10.65846242844516 13.439173299259368 9.66437945160953
Rh 10.183070539040775 12.880144757010394 13.81121571320166
Rh 11.376999116150323 14.270981750372416 12.09580828338132
Rh 8.988969575766601 13.581092323641453 11.71208004471774
