26
Energy = -146.2787293 eV
Rh 10.621201097289948 15.650795117277367 13.79727594866015
Rh 13.37322516010146 9.426975783528837 9.601120820257357
Rh 12.091419426309725 14.169917052943916 9.137105411253058
Rh 14.5218192228974 13.166188457401613 9.593637872732986
Rh 9.326646592228977 10.625200201491502 11.901469722896488
Rh 10.567175451392298 9.873822755422646 9.573569668396079
Rh 10.356105015909714 12.563220854011835 10.395101626515698
Rh 11.920822102894938 10.659655855721363 11.411418655073385
Rh 11.932550343497512 7.483893068323197 10.009714755078424
Rh 9.197396503380967 11.070041080686165 14.442745588200184
Rh 10.874145705104763 12.371015965631813 13.028399603439993
Rh 13.101964126068834 8.614149612831024 12.076981467872454
Rh 13.087009949000205 15.958845086382798 13.038133062271402
Rh 12.455930976097063 11.660039693709974 9.057671982146767
Rh 12.68720178619831 13.120297437700001 11.41101351340776
Rh 9.204043163491752 14.034740218332459 12.448711556601056
Rh 10.516186219319227 8.400248931351605 11.783859600420662
Rh 14.572756991183216 13.87810765496557 12.726624605581334
Rh 12.425061279916394 13.855161630543522 14.281045146506967
Rh 11.2686217881954 15.107548704685582 11.39788744706055
Rh 13.356990710117705 11.470518005892208 13.443322055620024
Rh 11.595814034062222 11.645594232030941 15.413349423488578
Rh 14.459197315697331 11.188498195142003 11.135668178105517
Rh 11.336850465236394 9.758317822832817 13.759296815447295
Rh 9.878316156136728 13.560585096873652 15.012214476977892
Rh 13.81165976301573 15.372239337182053 10.698817581347333
