28
Energy = -160.35781033 eV
Rh 12.190512917154557 7.398430350483378 7.620560075235129
Rh 11.627948631227845 9.776683741263929 7.602788289853822
Rh 9.926998901387764 7.192261093649486 8.479933646557974
Rh 10.64125180495879 6.665212082426566 10.799731006782169
Rh 12.527170390949728 12.130436480608573 8.031060512644352
Rh 12.89750522182253 7.583558202195064 9.968491382248377
Rh 13.402996656122822 10.031165520934199 9.321651815179903
Rh 8.968317576785205 9.410460278710818 8.120821027144634
Rh 10.081748675792833 11.752876426305036 7.651778871298653
Rh 7.587904188072664 11.35317265631982 7.373182854723542
Rh 8.569999880102781 8.429394374531075 10.514137329557599
Rh 12.488307550253598 7.187361911016219 12.487744786826758
Rh 10.308273501945658 8.544401168260611 12.444949966278939
Rh 10.91493039386438 9.228868374785035 9.950038505847258
Rh 7.542801307070446 10.709737506382728 9.87825262192685
Rh 8.538074432423173 10.414464412079019 12.216147230508454
Rh 12.829860953504303 9.613638909157645 11.703792185663875
Rh 9.920425171761426 11.49102014653747 10.187000770651158
Rh 12.356859610815032 11.998545372509545 10.558970281668008
Rh 10.870776616465937 13.746781313577333 9.258160082450972
Rh 12.122649445303892 9.248160480234294 14.108338633758809
Rh 8.285675969878715 13.152272642502611 8.951008071314732
Rh 9.711502400060594 10.039545761427517 14.528253669392726
Rh 7.939042516334624 12.8321888560062 11.490431117921926
Rh 11.082782547920786 11.176044297098603 12.684785453712117
Rh 10.567114803114691 13.490739207213679 11.808974269103453
Rh 9.135299056336454 12.442687697505434 13.707804661067515
Rh 8.949683190195326 14.94630504790543 10.537625192307786
