21
Energy = -115.73873269 eV
Rh 10.429770697287056 6.422247349316628 8.88470981600523
Rh 6.781170091530932 8.180083524916578 11.422448922895219
Rh 6.4413884171508204 10.93083925419202 11.374533779272578
Rh 11.427998391272626 10.97746127587266 11.57354733842538
Rh 10.514091329229618 10.110654394625275 6.2586407031211655
Rh 12.816471852922511 11.982207365466337 9.764170105833731
Rh 10.139252249837199 8.952826294700468 12.39255645946026
Rh 8.957551616874827 10.878800116901532 11.055592192505525
Rh 10.348573220002883 12.8514653980471 10.25844638001111
Rh 8.98837638110921 7.9362503243114215 10.30195864826706
Rh 12.745521669082049 9.012175156930581 12.252142158692322
Rh 11.422094380820807 7.455285869213088 10.868285693719713
Rh 7.909283283656387 9.652903695222514 13.029168241628453
Rh 7.716003550386454 13.040596321478505 10.68752597886355
Rh 7.310920395513983 9.655987653699775 9.43194703994156
Rh 11.025427584507023 11.782713072750322 8.057185364990106
Rh 9.715843043652375 9.707590103175448 8.657194004300457
Rh 12.153092162504052 9.492756431701373 9.65275541839315
Rh 8.522408414841264 11.93407975940226 8.653553767098934
Rh 11.3472139189931 8.20260096783685 7.611438027000164
Rh 12.885969749381903 10.260857643459012 7.419411554359459
