20
Energy = -110.40690517 eV
Rh 9.419055645558945 6.064989353482323 8.6339747315816
Rh 9.46203401734734 12.000376086395796 12.013965919026917
Rh 9.391652207580153 8.084622620404598 12.885943548281672
Rh 10.26934118562644 9.476797520532495 10.131173790270456
Rh 8.847139124806608 8.18698350910204 7.3135661657930005
Rh 7.2859772830050975 12.11188580293582 10.98168224134759
Rh 10.90370369776769 9.964281172067036 12.490094569454461
Rh 6.815961096620376 10.082164953007695 9.365552077176238
Rh 11.89704030726635 12.27525316511653 12.006167163425165
Rh 8.214727253236976 9.776251390014881 11.559932133320128
Rh 12.516634427620064 10.465045345146002 10.374416324880766
Rh 7.5808043874456565 10.295852502264824 7.003211036095878
Rh 11.164738971667322 7.893393684998103 8.439442521220982
Rh 13.22464275430038 9.028267902331288 8.521010262799926
Rh 12.284478592040797 11.206322159840704 7.9219503716329855
Rh 8.332788181292255 12.017217484698259 8.760606979859466
Rh 8.12952457155617 8.035697425796572 9.623351345950248
Rh 10.107818375290021 7.094781824393569 10.81715887463421
Rh 10.073959093173604 10.321933092234014 7.7488262166118655
Rh 10.542559906587107 12.0014064773174 9.78617299109601
