22
Energy = -122.14127827 eV
Rh 9.718028251397483 9.693231594982654 12.583693701185268
Rh 7.2454595268366715 12.624014457064787 11.147506800713655
Rh 11.516083945639064 10.409002183554787 10.602747446903116
Rh 7.251863921328167 9.993385541118046 12.028463753597473
Rh 10.602865289940711 12.249135649929531 9.040685712212056
Rh 8.30061006185099 7.630969845066642 12.130626716971173
Rh 8.126178437239165 12.495151476827882 8.656330752673707
Rh 10.255869912328881 5.795229503925656 11.41850685781363
Rh 6.465007649016995 10.807127296336136 9.670549419861441
Rh 9.02993354185571 10.975055453517491 10.532070005899607
Rh 10.261624532523781 8.180939032477603 10.645134572278161
Rh 9.647157063025544 11.661073059409903 6.732375065326479
Rh 12.301662073561229 8.400781423134239 9.185336874511401
Rh 10.143267970907434 9.710538803461228 8.418005818718429
Rh 7.711355215776358 8.691881721900792 9.783099966873047
Rh 8.426566133452308 6.346649083971629 9.862578192417642
Rh 10.820548937662368 6.36909738046816 8.914485644605922
Rh 12.442190327683157 10.74590772313931 8.170399630379967
Rh 7.767756686496573 10.132728989664136 7.620333079492823
Rh 11.292289168606057 7.909704750352809 6.89117491790806
Rh 8.869783009297606 7.61299751061184 7.723990449505827
Rh 9.437197021976957 9.29354011749025 5.871890822174325
