27
Energy = -152.9297958 eV
Rh 11.939543207759625 6.244570432188404 9.236259516562933
Rh 12.849979836508762 8.07056091785851 10.63436623734566
Rh 13.723948329318718 9.86477289496682 8.955945777603102
Rh 11.437253885874636 8.852153314156078 8.769721834385443
Rh 11.335469987900078 9.310719147497664 12.191130542529953
Rh 9.662833024596754 7.219745073573666 9.284410414690484
Rh 10.77057688752207 6.910450348426863 11.490328426461117
Rh 10.710272215208438 10.922527956546237 7.565985600399605
Rh 13.501058643785408 10.37436122195905 11.455125359277766
Rh 12.455851186643798 11.846462022981981 9.697854770600252
Rh 9.449542305495878 8.71308860457668 7.189504207561616
Rh 13.52198459098608 11.562250946498954 13.518483959775761
Rh 10.301176750290804 10.688524075590353 10.162116013235032
Rh 11.674525579432073 13.230997747598735 7.77724503291175
Rh 11.409614134336802 10.650670009735096 14.246833506423904
Rh 8.873803897064104 8.706203703793921 11.167240715222674
Rh 9.293331621800858 10.715926499624457 12.760287841712342
Rh 7.431864766169089 8.181104251151071 8.876329536632943
Rh 11.507451135385612 12.147573791036898 12.133204335765447
Rh 8.276530266078435 10.498096654152171 8.514887536884581
Rh 11.188560257985957 13.938507884221039 10.289399331107832
Rh 6.370629278419432 8.605575832527421 11.136131204206496
Rh 9.454764405924175 12.873020859490738 8.768946940853999
Rh 9.154739608347601 12.836754044545788 11.337779600853288
Rh 7.479806616484131 10.902753776535844 11.04750706533711
Rh 5.85947989906404 10.23832794916575 9.233949203548304
Rh 7.090330638125975 12.6192229961087 9.283948444619663
