29
Energy = -166.30946734 eV
Rh 13.192747991055594 10.398938905510331 12.522467489866933
Rh 12.248750207416489 12.474052659225729 11.241572471859907
Rh 13.034511688167578 10.393945720286744 9.609472989562425
Rh 13.066778629980272 12.336492075936018 8.033377937904913
Rh 12.731207887417698 8.35583083610471 11.169108907495216
Rh 11.005080319094725 11.479500758148225 13.301703547877542
Rh 11.093564522833953 8.864521680950642 13.113035563106022
Rh 9.571867536372151 12.405025180326916 11.341927869296166
Rh 11.81450256241295 10.289547133800252 7.31715108106313
Rh 10.905732775172881 10.247732761169404 10.971491022004086
Rh 11.334940801366082 8.325373629237022 9.136545301618078
Rh 9.940696938860919 12.27254291885836 6.904929857619374
Rh 10.910056645643936 12.177036207740466 9.181081563503497
Rh 10.493198555506975 7.0632221855341095 11.31121905383132
Rh 9.499903022423338 10.125341660375257 8.330123339511182
Rh 8.820050705776097 10.240607108440265 12.541304231355301
Rh 9.110554296688706 6.944521920571394 8.713189317765455
Rh 7.965559041481419 6.3945450323750475 11.017075650713084
Rh 10.429616775360051 8.156389485015062 6.8482843891417104
Rh 8.945747950854152 8.785697831172554 10.385008426046905
Rh 8.71328798869198 7.775344665973229 13.042499316863163
Rh 8.360852112088102 12.295015526233389 9.074614699272258
Rh 7.105599650516775 11.521758563368042 11.233128115813415
Rh 9.495712862239856 10.07847440942987 5.5650072406473186
Rh 6.6521135310396975 7.591091397370287 9.172822958949792
Rh 7.580350262345323 11.1837233792391 6.857262738444268
Rh 6.746383806744649 8.862485401085246 11.553088534406537
Rh 7.881935638459041 8.585576731404657 7.084781250155151
Rh 7.031869502182178 10.080678958962947 9.180857988210413
