22
Energy = -122.14148295 eV
Rh 10.690947096648795 6.898196520204989 7.625337704433882
Rh 10.41806219309071 5.768731599479152 9.970409188747817
Rh 11.658522590867925 7.945109959094397 9.641000994498157
Rh 11.354030455686374 9.419135566889999 7.446794721116096
Rh 8.95887812959413 8.649634376466812 6.733797493694997
Rh 8.455975144512223 6.961619493311183 8.780341501968218
Rh 10.727583670945569 7.3493885308643705 12.076921407015153
Rh 8.359895425298879 6.5049224750392804 11.37643418304638
Rh 11.675958438586953 10.458260672704883 9.853345740490886
Rh 9.801411412553664 11.083528643258484 6.156579554237932
Rh 9.3771272092033 8.651918122929661 10.275112442294203
Rh 11.197822657783865 12.161912760309894 8.02838474204191
Rh 9.285784152860787 10.30508105218652 8.603874414661732
Rh 8.52546368557334 8.651941385995324 12.821948558688302
Rh 10.572815043708518 10.025675453123343 12.068652711642972
Rh 6.874969133220282 8.514873735787791 10.616090578173202
Rh 6.803129867039894 8.761728568339459 8.110380778437662
Rh 7.304382525620954 10.80562933081642 6.640490342809039
Rh 8.598406278426781 12.710894529780203 7.9727507473731585
Rh 9.859971466578418 12.21904256449032 10.259920594429124
Rh 8.163182301098493 10.71433536253542 11.316447484130887
Rh 6.887531214435611 11.069357973671938 9.16749328002393
