21
Energy = -115.05841814 eV
Rh 11.136543249182791 9.717836225059122 12.814969109731956
Rh 10.81132180741621 13.094866985890803 12.944759546216115
Rh 11.015144841121835 7.797959323582668 9.872425383502769
Rh 7.554054832470165 8.202708696688681 10.264903261317029
Rh 11.040366177555063 9.858648359917005 6.902282410535032
Rh 7.919941457890452 11.262173442644393 13.033884642265317
Rh 9.521923847098286 8.255656586817471 11.69575952644945
Rh 7.296592643790135 12.84245721118277 9.77792289597359
Rh 10.918182436276586 7.399881165479822 7.388907994756151
Rh 9.508285631390079 10.68776280448265 11.13966252405919
Rh 8.802390627461138 12.986799307885086 11.633505985000248
Rh 9.12866625781941 8.778195104746862 8.490061315802613
Rh 13.280208154941064 10.820214054128149 6.8649789222393816
Rh 11.101586307643329 10.337560955113998 9.298503805769922
Rh 8.723736159261362 11.176450252412137 8.768208076245067
Rh 7.048153360323582 10.511483121217344 10.70299586087968
Rh 12.93349412696169 8.76451296805547 8.350731738947093
Rh 9.969045475008745 11.267226773680104 14.292308226141293
Rh 11.909317057617923 11.698087582871596 11.34989614120599
Rh 12.794052925083921 9.27467102865084 10.958694728265245
Rh 13.453843396060817 11.146686889869656 9.284318130875889
