27
Energy = -154.18216529 eV
Rh 13.068658889759519 13.231352641746037 8.209575661156713
Rh 13.848726778893028 10.820557795085834 8.40746635417591
Rh 11.666206982475599 11.246199829500133 7.102942911148138
Rh 10.592016207453247 13.356354364177363 8.024286348940327
Rh 11.387718254745918 14.17067670031058 10.251898664118125
Rh 12.850246240843184 11.989766892370323 10.44060387866193
Rh 11.900979637698748 9.143944770616475 8.650207722392059
Rh 10.724532671125509 11.12531384455028 9.586229107736099
Rh 9.065344364161216 11.309017923376178 7.823577339003846
Rh 13.571928821255788 9.4270097185275 10.547439679171363
Rh 8.971318876939069 13.029077435414308 9.923326777989955
Rh 10.063743826660188 9.141684687638666 6.909462319694445
Rh 10.648517757195131 12.413654695778368 11.896188513067825
Rh 11.577971007862583 10.070728074443009 11.921832717322442
Rh 11.671786525549576 7.774766861819097 10.89994128910134
Rh 10.079773324381506 7.312142375899158 8.82682352790219
Rh 7.046063228717247 11.297217186337043 9.42602411048831
Rh 8.070399809010183 9.126756637120991 8.54753209851745
Rh 9.843783103683363 10.715298550473667 13.609721223625396
Rh 9.435882079426275 9.165606214220965 10.553527263887187
Rh 8.346630792957027 11.14693474998769 11.591141671115173
Rh 9.835365398522429 6.073302651621402 11.20760433224375
Rh 9.788966127043105 8.184855185550616 12.766152989813882
Rh 7.867522521237093 7.025817845597638 9.999288110369797
Rh 6.80165654460817 9.131325350365062 10.944754285991078
Rh 7.634234281042659 9.417037831494698 13.355572182174562
Rh 7.52388217930013 7.037455418525045 12.46073515273851
