27
Energy = -152.93928498 eV
Rh 10.205304674055615 7.9511397353591535 12.453317895623583
Rh 8.80454488920831 10.166747524025034 12.82450145108885
Rh 12.315227745580762 8.16170270279758 10.867612898569115
Rh 11.136417086288022 10.233014900810142 11.80142092124498
Rh 13.230264419314913 10.618072932821926 10.402609876977662
Rh 10.245233146830445 6.515457067383667 10.235264830331655
Rh 7.702293561171716 7.98924297053839 11.627459189887867
Rh 9.985256903615003 12.469771411826938 12.184796386847346
Rh 7.43370095623228 12.394981933844694 12.517732119748148
Rh 14.005665469504967 8.616658827524505 8.944385602091996
Rh 6.391877957045158 10.090148974670468 12.096210735769104
Rh 8.513915242871 11.207796307488678 10.483865460769678
Rh 12.347751180611997 6.652135333851974 8.848703048952638
Rh 10.270929725415945 7.570817174547138 7.747144039016538
Rh 12.620308235580955 8.23571088312319 6.82691216845443
Rh 9.549822366792176 8.923729081147497 10.215720788437604
Rh 6.044487540384416 11.993130420425281 10.410299599640052
Rh 7.987192185665198 7.301204122595728 9.080232197723822
Rh 11.578185448656631 9.515600547881439 8.806108088792397
Rh 9.070358161673363 13.431955151864985 9.67469898660575
Rh 12.395026658749993 11.605288779964754 7.827626379706455
Rh 6.717435661581276 9.56163277353725 9.646144239654516
Rh 11.22859617606416 12.092562821764126 10.044265692303055
Rh 10.642842139556578 9.869287379240163 6.453881665437592
Rh 8.567213884384092 9.483712269070882 7.891856051590175
Rh 7.3683097488940135 11.716312351242092 8.22592133908024
Rh 9.8563470311993 11.69242279049771 7.978702655990563
