26
Energy = -145.15094807 eV
Rh 8.779995871407525 9.0081875835487 13.883811933380091
Rh 11.949770343797162 12.421494278006241 10.649935656436904
Rh 9.971583954144908 10.996468633678264 14.395079279730867
Rh 13.038595296164164 14.561088662498673 7.797620319111261
Rh 11.15444808129058 12.910756585644924 8.280287602739971
Rh 13.30930921905442 10.333840088689138 10.195356881410147
Rh 9.055136527936092 9.580278103902838 11.565601174614232
Rh 11.204278725794575 8.85011222882055 10.243860864565212
Rh 11.395828703932866 10.460365269080379 12.311094942429197
Rh 13.89827007498123 10.720999269154268 12.710219711728906
Rh 13.174717056235394 8.34115611285238 11.864164571520663
Rh 10.761483457176205 7.97083607447188 12.714704434200462
Rh 10.030675531822652 11.074517134605259 9.752712231343406
Rh 12.461265090404842 9.164297532196644 14.238052738000949
Rh 11.867110212523038 10.363032904733078 8.114823595839656
Rh 9.254285034272664 13.53391868458311 9.907508960531331
Rh 10.782139728298866 13.470146108644279 13.980555395545004
Rh 11.071858330720273 15.293470000679712 9.219148730327156
Rh 13.682707402408115 12.309162663483514 8.595625343795277
Rh 14.673861232208514 12.422063106692228 10.976810035076502
Rh 7.279416568896827 7.874839549947379 15.076107445065304
Rh 10.857928895378475 14.516597911839668 11.614926352135592
Rh 12.401309385770093 11.657699308247643 14.558145842828027
Rh 9.568370618984286 12.210575992137985 12.125071373645385
Rh 13.199841549533083 14.570050393364433 10.409864367015324
Rh 13.015612163377495 13.325798105223083 12.726395514124413
