29
Energy = -166.46432224 eV
Rh 10.307357103928357 5.89239002503996 9.404670830481816
Rh 9.24569475199643 6.554447784800193 11.865770591720183
Rh 11.640314949031124 6.943930992753952 11.337130045097119
Rh 8.294934835644138 7.433017218700221 9.753801477594415
Rh 13.425226363923137 7.570160971116736 9.668804752890633
Rh 9.457811459634305 7.450168247294505 7.403034598871665
Rh 10.4441756468852 8.652622582738546 12.852905469544476
Rh 8.057856814890625 8.868440902047922 11.871535966892077
Rh 10.745923460088989 8.387054280200614 9.432192499503996
Rh 12.069377352779261 7.498193820079381 7.477582301117255
Rh 6.967829050773336 8.163287450720976 7.659154024955035
Rh 12.468356230215353 9.348965600252448 11.254435250949903
Rh 6.3967836589071725 9.190408950778535 9.986265922602076
Rh 12.722933618653702 9.828179959324858 8.718718195326192
Rh 10.0035607222425 10.236712174983586 10.926679241624438
Rh 10.678976049908176 9.695705617221426 7.16566562055597
Rh 8.414559287924359 9.364080724242893 5.905111652101241
Rh 8.583560909919553 9.868547556093146 8.773293911697044
Rh 11.657782645841104 11.964421339107057 7.746175190173875
Rh 5.45626536801081 11.375909059040596 9.461355606973518
Rh 7.7083569344392835 11.458319634038308 10.842864861627291
Rh 9.711171731834169 12.250175793590905 9.302765809998109
Rh 11.947214559372457 11.750466048033994 10.32710664680433
Rh 8.87810911764766 10.832361131897661 13.199453907100638
Rh 11.501393108916247 11.083639013615237 12.831876615544786
Rh 6.688767525409431 10.734450718890553 7.312173971827999
Rh 9.101016233649045 11.68249631663771 6.917205099106725
Rh 9.84816610594163 12.832768470839426 11.786283418575854
Rh 7.35773425233992 12.790920007456242 8.610184584425845
