21
Energy = -116.00838395 eV
Rh 10.121618444848409 13.007604521257068 8.652177006599818
Rh 12.358691933659747 12.912067567955065 9.754391255575142
Rh 10.962817658551765 8.669223744302943 7.411961399189242
Rh 12.271866409856703 10.77756652841364 8.277819159258922
Rh 9.797216093896601 10.540124519766222 8.563809673169093
Rh 14.31388016480143 11.430760940997017 9.522328943454072
Rh 10.2470965588318 6.958884466111286 9.131322505826539
Rh 11.321406784153272 11.027635648045337 10.85439679653634
Rh 7.910070767727118 11.920348599942601 9.353225393544802
Rh 10.13744779376099 13.298002537593952 11.205695920124471
Rh 6.5533141882681045 9.87167519286657 9.225442231218443
Rh 11.417480885861053 12.210169931489379 13.021455255149109
Rh 8.753985415381308 11.211311400229386 11.480591978910663
Rh 8.384112164345556 8.556865990904987 8.38745788482633
Rh 11.975016712828138 8.683993024982144 9.743624049846028
Rh 13.519837797896841 9.90133208683769 11.203604816757379
Rh 11.316467157025926 9.033187606067221 12.386125888363782
Rh 9.530371038857455 8.900062317255697 10.5779198651819
Rh 7.271201995245277 9.328530601616592 11.484214510938141
Rh 9.723379596651716 10.543436071691863 13.573688062440457
Rh 8.95734089533159 8.210053288592746 12.993891599789361
