21
Energy = -116.17968874 eV
Rh 12.074617592182477 10.782744808339048 13.370391194254399
Rh 7.39052500293729 9.35326130868723 9.550868473964853
Rh 12.414376068174676 13.163926324919993 13.050377029937325
Rh 12.541890967005724 9.464947239225667 8.12421392556049
Rh 10.936146210357126 11.34685111944342 8.516568253962353
Rh 10.239269842063687 9.292249028858889 12.658078287604628
Rh 8.361091313894264 10.866399183041754 7.8113327373653245
Rh 8.850723809091534 11.255295774149696 10.269840909629007
Rh 6.954512044755216 8.880105604173625 11.848695529092165
Rh 9.753470401175132 8.723799083387025 10.084195677932046
Rh 13.745838871420412 10.222916641564558 11.654788050316531
Rh 13.412493189268538 11.471918943914684 9.412214220903026
Rh 10.012776610896818 12.703247649597051 12.144754433858983
Rh 10.065613473011977 9.092517733807979 7.72689617264207
Rh 9.783199256444028 13.410461957818008 9.444507683940547
Rh 11.32861491600399 10.822875673839727 10.957700813431805
Rh 14.321341199514729 12.626599558181848 11.485809950283535
Rh 11.989705180860007 13.243674305524747 10.566735945015289
Rh 8.857391255847201 7.41951029440412 12.001815273789212
Rh 8.354075644539535 10.733194376883057 12.565337290770376
Rh 12.287347368361157 8.591872894729416 10.359234914012852
