28
Energy = -159.91851054 eV
Rh 8.103742364321693 8.33176341191285 14.370304085105483
Rh 9.285594872082054 7.490487741206987 12.29895131649191
Rh 8.039607759054118 10.548833887902562 13.017820551004625
Rh 6.912231087990705 8.358440247906023 12.149453970336504
Rh 10.293647261845088 9.437096530515321 13.714208933339355
Rh 8.381970206459227 7.957841104957726 9.963083256201177
Rh 8.53265681302828 12.400628056362242 11.184714554473585
Rh 7.152068901421681 10.25478204640566 10.532811000192464
Rh 7.434635790482274 9.416371506687096 8.055528085409541
Rh 11.804100404937122 7.629354632895879 12.811926190038296
Rh 10.404877008176058 11.755295464105421 12.739909309603831
Rh 9.59346366861843 9.935377912537843 11.062927222789487
Rh 8.797830999361771 11.356861288645963 8.889168476450283
Rh 10.392855367774716 14.077145559448379 11.810272765723088
Rh 13.492749329922267 8.132714480303454 10.81502882767829
Rh 9.118058484900669 10.741184823324563 6.471823444260785
Rh 11.005934199731607 7.848304596001687 10.381668587656486
Rh 12.104430901085127 9.974420186093548 11.867459361556536
Rh 11.39193693167434 10.835219019469744 9.411743941011187
Rh 10.479843874417355 13.211302587078674 9.446233777140792
Rh 12.279018576623137 12.480884271637983 11.12396536393459
Rh 9.0537603374542 13.268338225355077 7.316970759226583
Rh 13.84305139830123 10.621543301432814 9.965087722713305
Rh 9.943480576358604 8.979083854876913 8.21903287737378
Rh 11.517344941167297 9.671156547584124 6.343137376354773
Rh 12.57778718036243 8.799366853041613 8.532734155306938
Rh 11.234336449620185 12.047495783189323 7.181048597816944
Rh 13.486901337342971 10.972955398368107 7.512977603888666
