29
Energy = -165.10356487 eV
Rh 7.408594688763433 10.25749353396023 11.09078613153932
Rh 13.569406823815697 9.144486834400555 9.385465820506136
Rh 12.576796433519643 12.526926047378542 6.526568529804841
Rh 9.906501206430955 13.862325909650847 11.531757626596992
Rh 7.772483492274483 10.352908617610836 8.624519283052383
Rh 9.630926792176368 13.69042726136792 13.960940596983802
Rh 11.65471299742835 7.698957921197593 10.14195628286486
Rh 13.132449739791182 10.783485137920534 11.438684112352465
Rh 11.319497069989842 9.080503174889502 12.196248113565014
Rh 11.220912824645652 13.534579856961777 8.254894956082754
Rh 9.974162753395811 11.453951120129842 8.137225785856922
Rh 11.645373513867405 12.421817460439506 12.896955018525084
Rh 8.897208000012126 8.968952017579864 12.59625321181904
Rh 8.520843724269072 12.28542732282317 10.066958343976923
Rh 12.713978370712297 11.456546795465504 8.89927090116917
Rh 11.077913001031867 10.650564392153626 6.062918320060675
Rh 12.75384233579683 7.948386753325912 14.050730021796118
Rh 9.452411349331959 9.071349583912546 10.057641578574598
Rh 10.726140389246577 11.116375183189007 10.623357427970543
Rh 11.26077880648223 9.27280923594387 8.222900144423173
Rh 8.083622844958898 10.209821721929012 14.597999039533507
Rh 12.482390474048069 10.39579963932952 14.075403169533356
Rh 10.38765310412158 8.879449866275124 14.598948097798466
Rh 13.62381288728722 8.202661371360675 11.689474918282084
Rh 13.378150024350584 10.03239652629195 6.984371225574397
Rh 9.107111184147541 11.534804969689208 12.598413141632
Rh 10.245081790602814 11.419461628147284 14.835812697567901
Rh 12.199783677382683 13.233624086976475 10.56955204745666
Rh 9.285377879217004 14.521624208797125 9.291911634199446
