27
Energy = -153.25130687 eV
Rh 14.170485880611304 7.541731523625012 10.148318832702971
Rh 13.45654240336181 9.855472877541779 9.418247590017529
Rh 11.620920039532148 11.887083054378957 6.509674246954744
Rh 12.206920806496786 7.765417320629968 8.744556573994771
Rh 9.75590203042838 7.999229699470735 8.527973565824588
Rh 11.132993036766177 10.060553186029612 8.173732300006302
Rh 12.53273771019404 12.170740117300676 8.85297767307113
Rh 13.019460276652099 8.900707409059399 11.772895841106774
Rh 9.309608516355478 10.899010646915954 6.6225482999446035
Rh 7.936044290574527 9.014267781884792 7.228145561167666
Rh 10.871395911152497 8.190829362983472 10.863701126178682
Rh 12.82140066867049 11.413371808098807 11.308410696319239
Rh 12.248616055852482 8.526377558154776 14.005809693522744
Rh 10.4750607910031 10.607815965813284 10.584118696325746
Rh 10.005478700776928 12.423671976471518 8.545122038696645
Rh 9.970392139882895 8.372282988101384 13.186549132745549
Rh 11.108869585010629 10.596911990377224 13.119971654936604
Rh 7.585358030572892 11.638107216706517 8.390534993695953
Rh 11.026524808653566 13.168999007762217 10.789734711710352
Rh 8.380117357644885 7.86006186473421 11.302691019608098
Rh 8.27082709189933 9.670732824477435 9.643157427801208
Rh 8.496383223808374 12.574603905578837 10.62452920465081
Rh 12.100975001374925 12.916292509967324 13.173325026163301
Rh 6.486504814466831 11.072309932374965 10.760368839139215
Rh 9.648970817955298 12.638921066503952 12.895339011830803
Rh 7.198497138006626 12.301068141335554 12.865788326097212
Rh 8.467080213310522 10.23749560473665 12.245845256801177
