26
Energy = -146.29879559 eV
Rh 7.754266565683029 9.10379816421285 8.40404832163809
Rh 9.595869161809965 10.534820927964747 6.862915135651539
Rh 7.410526907321889 10.477091827883914 10.758275712380716
Rh 7.7262551921418225 11.899035005487551 8.428557714126745
Rh 8.994315372931169 8.271675663323085 10.612534827075379
Rh 10.383630631585184 8.309020464308354 8.274074007501497
Rh 11.218127851314657 6.814590430871436 10.421015605909371
Rh 13.057214116658718 8.240773087500305 8.881490850099153
Rh 13.28326225560971 8.225985857003169 11.67552581006747
Rh 10.74070290935793 8.277582283176754 12.699770641305992
Rh 11.448302520600038 9.254050017304195 10.427848184147921
Rh 11.929657182089157 10.54532690750986 8.164387117868298
Rh 9.740052835994229 10.494834762190607 11.838315612632568
Rh 8.136755661497611 9.06197700337417 13.00876593066448
Rh 9.545961036313596 10.509245129044318 9.308079874818196
Rh 8.945328106955655 12.717997282687225 10.646130728769577
Rh 10.334402727210813 12.746979487239445 8.30792561523387
Rh 8.10545464844646 11.87013169375122 13.032304110101858
Rh 11.419316789920106 11.794445528430156 10.446576790690445
Rh 13.005074743040348 12.86105939061682 8.910435824758531
Rh 10.692170202800593 12.721126340066876 12.733018025933962
Rh 11.13631327652213 14.227646027734494 10.473716936891867
Rh 13.234385707783437 12.846412228727331 11.704625689096819
Rh 10.19796692714542 10.480233234505105 14.251758213886784
Rh 12.28319574619198 10.518124426281714 12.59626809829491
Rh 13.666083116423955 10.549460433547456 10.253385643575633
