35
Energy = -199.37021139 eV
Rh 9.526959048230745 12.0213132456532 10.140736330735502
Rh 11.002079548173251 11.61109687334824 14.247788401795077
Rh 11.68819598769953 7.000688004986356 15.298694087601843
Rh 13.058924849904336 12.132642844611492 5.666691340429193
Rh 12.897493886694894 7.292690173010927 13.243010866802814
Rh 9.36512154428234 10.82664592016043 12.375039286738378
Rh 10.134077905736577 14.025061789353082 8.28241550192929
Rh 9.316218677878906 14.810419777968141 10.626300481121351
Rh 8.576402488361548 12.609361378992114 14.106891287170864
Rh 14.541810784524865 9.681541901079084 9.402783246709227
Rh 7.816637532373586 13.045959064834427 11.722058830007011
Rh 13.677222632795909 9.490944753079535 13.970878440499563
Rh 13.730489739108059 13.99737687116247 11.780572618871114
Rh 12.341535529464712 13.77333990312189 13.924638114770532
Rh 11.212745645986006 15.964020686546396 9.441280541713192
Rh 9.754380124848593 8.136009285690397 14.388479152013714
Rh 11.280282049241135 9.199955919127722 12.837053431108185
Rh 11.871165348585548 13.578892872472489 10.188026638316023
Rh 10.86338683148847 12.751604333268373 6.221913351277177
Rh 8.979898559731389 10.318508238111082 14.949763348924092
Rh 11.675566739211634 10.947000202912745 10.965646832225236
Rh 13.118234697676565 8.822189930292017 11.164664972135855
Rh 10.351772181668622 13.253883583866543 12.37974176026652
Rh 14.444340054149867 11.79307408515979 14.883159999037195
Rh 13.29485276065838 11.74570762539759 12.76417553883605
Rh 12.458223915579177 11.790977653340086 16.19521823548402
Rh 16.069283697534818 10.234797290480893 13.999722993424607
Rh 7.656230037369742 13.48271076745075 9.206908913042598
Rh 11.56758983603028 15.403861592776535 11.916485099427787
Rh 13.534130799859927 11.2440043418653 7.804016356238424
Rh 11.782673998342766 9.492325610259126 15.517750840344426
Rh 15.083766965436203 10.27363772785044 11.813802521118113
Rh 11.33334071042287 11.732445346324846 8.41429045275789
Rh 13.923130444051258 11.950263809475166 10.204322525129646
Rh 8.90019419976295 11.928244115824329 7.599737543228933
