36
Energy = -210.0194919 eV
Rh 7.878397718055327 7.766681399432018 4.491522389647132
Rh 10.109203840430483 7.681842836361629 5.971946505396357
Rh 10.011221037835268 10.246557343363717 5.363195397118695
Rh 8.505760876790427 5.692272406695413 5.90434640498546
Rh 6.022810410125985 6.222743558881744 5.587187946044277
Rh 7.136667259701183 10.70210596685827 4.942069163615795
Rh 12.334474118464462 7.748737389980026 7.1184320339327
Rh 8.108774736180353 9.133034339145933 6.5511081501722455
Rh 5.722771478007897 8.702845584809008 5.8720978862416455
Rh 11.046291959228867 12.115215132109713 6.752981604889715
Rh 11.011857746267758 5.486093835018274 6.763425991537145
Rh 8.543574387243025 11.738978565601986 6.9052934520659655
Rh 4.911532499559797 6.108124409401912 8.280348205494297
Rh 6.759625667297084 4.435913842677443 7.457242055061874
Rh 7.210361005103875 7.015989913482103 7.690600525901033
Rh 6.1790302685873115 10.798736931958821 7.436406155800097
Rh 12.508502344901764 8.754366875784008 9.48007307536633
Rh 10.966048776296779 9.819705140437382 7.726610988922369
Rh 7.393277907291149 12.454928140480549 9.1664097680354
Rh 10.019325856594676 11.944840931238256 9.11899199836651
Rh 8.296773724594935 10.1066239589365 8.8769673061778
Rh 5.3468724073281395 8.59380663196415 8.433747694062216
Rh 9.511528744105684 7.803482266215369 8.557872108363112
Rh 9.09709112614448 5.233282914260761 8.399747275078635
Rh 11.42137547497573 6.449297534259319 9.160541725939016
Rh 6.005309290645218 10.48928231193185 10.076735159952584
Rh 10.351066713622396 9.611257763745934 10.343869309778606
Rh 6.894412220969612 5.425464755724719 9.865079768012762
Rh 8.36653839059782 10.996072258136664 11.240938995696434
Rh 7.364063250348133 8.089545770558912 10.058612096762696
Rh 5.055497100868243 7.2930128401476315 10.622415316433095
Rh 9.214404304161693 6.32784975257391 10.73164089605462
Rh 11.271130734946373 7.578984307637431 11.503293480141641
Rh 6.434776371374251 9.204893002650484 12.203594581455619
Rh 8.8923812094982 8.543814269305122 12.11829511362075
Rh 7.066708186113176 6.653054262489878 12.195798618133091
