35
Energy = -203.55216675 eV
Rh 6.01388761111785 10.486545660335299 13.72579011581272
Rh 6.051804643341593 10.406800055185158 11.114503411924996
Rh 7.353150861166392 12.11900894156896 12.410956277546992
Rh 8.347111979567446 11.069198530512711 14.570083256085502
Rh 7.522995407992036 12.108197338645603 9.780121517770128
Rh 7.996184759079701 9.50040399637931 12.496031917061522
Rh 8.038301686106129 9.45812417034692 9.896337705982504
Rh 11.107290408573999 12.391538906123579 6.9878441039701835
Rh 8.449501619257731 8.671021346128589 7.583766903348002
Rh 8.59931224846076 13.973553562270407 11.23844672364847
Rh 9.702249562645111 12.886624510317008 13.276962646178772
Rh 10.410430322893758 9.715341652690515 6.364136886995435
Rh 9.184722969672492 11.031384177792091 8.108612604757239
Rh 9.566678804425221 11.244517135853448 11.137769625954446
Rh 10.397638481654369 10.109774006968482 13.398065266817131
Rh 10.033605260479227 8.560406623202931 11.328514494412929
Rh 9.69618767041534 13.327627198254495 8.996552210889915
Rh 10.70191071007795 11.745264395497165 15.302333863225243
Rh 11.087276664570238 13.383141641761004 11.191711190744623
Rh 11.5376094351599 11.473361893495579 9.299645028587626
Rh 12.282633384796585 13.934370149817116 8.926233082350267
Rh 10.591403394958204 8.96976232045483 8.900733263843007
Rh 12.139444835261887 10.172500613385822 11.363669263073557
Rh 12.196401464344381 12.098729326768954 13.202416719519205
Rh 12.578800290263203 10.204763917113741 7.282932930917042
Rh 11.987374104277293 8.147664757192667 12.930290380061413
Rh 13.446905158096182 12.500255478313893 10.94721662354295
Rh 12.712385389080696 9.936740847515424 14.562862440721005
Rh 11.899347038037899 7.06904005543967 10.543011873264533
Rh 13.926730099192254 12.049289013493338 8.373709206906264
Rh 13.146428389442875 8.788065102674134 9.353644829355972
Rh 14.289126121474906 10.70487455103582 12.718220542808986
Rh 14.815984760643895 10.493862223297596 10.209351156889765
Rh 14.123589899081823 8.347937220773815 11.634314982533573
Rh 14.924180036207028 9.702105068356987 7.777031866447736
