31
Energy = -176.37534049 eV
Rh 7.2975275571709375 7.909175562665296 9.93396502402122
Rh 8.5411669342246 8.355101746769662 7.715178218458004
Rh 12.354106927063745 9.72539557726066 12.400695201920422
Rh 12.086685632631337 11.175465546023366 8.430158517427165
Rh 14.034239500547384 13.92526830818827 13.322841509560735
Rh 12.666139935627188 10.29827916915164 14.809701276411097
Rh 10.416623199127478 12.911620310550747 7.834590607383569
Rh 11.940514218989524 12.289684319143262 13.404266078620767
Rh 11.67587469473319 7.963494484710953 14.155698995219355
Rh 9.858963903535107 10.639973034166367 13.077681959307524
Rh 13.368956465947859 13.090991265977303 11.026129598814109
Rh 8.959489831384252 12.412753909916589 9.84533609296079
Rh 10.326357537689262 9.672241582685796 15.183159641796015
Rh 9.762062914293429 10.39534204275029 8.287224642356449
Rh 9.723047052643869 13.13401593709403 12.331938690058008
Rh 11.162136937049242 11.565680582132504 10.891395528367797
Rh 10.990386237724332 13.928603050242069 10.088927092266488
Rh 9.719712826036595 7.460047128312704 9.741483385426815
Rh 11.80959438529742 14.628557596566177 12.37254713666113
Rh 13.835209710862596 12.36799561400584 15.234599578264648
Rh 12.973014940151742 13.457242624975816 8.561081583666772
Rh 15.060396133826586 12.340327021826445 9.27376918676159
Rh 6.484311674375712 12.186268470188882 9.916611430082181
Rh 11.506893740891108 9.156941138680235 9.963847164261082
Rh 13.659645899745607 10.560438991662853 10.451443096524219
Rh 14.311546147392955 11.398521961091783 12.792047129891543
Rh 8.914233826287434 9.810271788530168 10.761614488022255
Rh 10.349113197758646 8.182378556980744 12.097873347729934
Rh 14.329116084071632 10.342735270049019 8.055966701099974
Rh 7.7337781085067965 11.649717413489952 11.980642796931257
Rh 7.22409861419815 10.155837708162908 8.944250739331526
