35
Energy = -198.93669519 eV
Rh 8.349899613588306 10.440885869216906 11.588772074105131
Rh 7.082776448601074 12.60037684892868 12.194262354091544
Rh 14.294689415487944 12.332030744482317 11.211361225579713
Rh 14.985747332547598 13.659187762786226 13.778370787950609
Rh 15.13354823403823 10.991970915432708 13.402753285153485
Rh 13.159835749270899 9.24113589070908 13.28380472542769
Rh 10.12667995453913 11.28428649148776 10.062803339481222
Rh 15.334179838068673 16.21896670412658 11.468720043252123
Rh 12.370997192943339 11.57639893091776 12.769553833748066
Rh 16.34155421444273 13.847335458171761 11.513021630669689
Rh 5.580950733832118 13.888821566043156 11.171176002353661
Rh 12.570719073227934 8.279676515094723 11.049470851387321
Rh 12.529293396303443 10.697921852753408 10.286613479646975
Rh 12.733165826846239 14.860878635589026 14.444608585013494
Rh 9.360600536852242 10.838476994595787 13.864414639886776
Rh 18.11544194497402 14.730395932805104 13.156507563433678
Rh 11.497799812444418 10.487432482139948 14.978181114340902
Rh 10.778034735186045 9.75410836882808 12.0578475508792
Rh 13.207218404345717 12.413644557716871 15.051750473689843
Rh 11.301767842808898 16.8955248673928 13.627517101127015
Rh 17.262826963079124 12.520643961436942 13.56748745908354
Rh 9.465054690995716 12.729857104471492 12.097930066733111
Rh 11.857350404104183 13.138858379632309 10.785130404937092
Rh 6.9380472965275395 10.79142179960288 13.708229329236124
Rh 14.65345820510781 9.716400964988669 11.209873111947786
Rh 13.362326671988008 14.795559650366243 12.039276051936305
Rh 16.05225222698815 15.813846740471604 13.744136138887509
Rh 10.900474796039543 14.773787672413656 12.546870734037503
Rh 10.862340091562286 12.958860661840346 14.25155001660933
Rh 13.340552218700015 17.313021991319395 12.390723807757416
Rh 14.502207290413569 14.39416881710466 9.794960864618114
Rh 15.715650785484224 11.986212176679125 15.597483233310465
Rh 14.096079548265786 16.867562843313245 14.676223629124838
Rh 16.628533586922668 11.296866704061687 11.344038462612485
Rh 14.011162386046927 10.01130033767014 15.494000067900089
