38
Energy = -222.83429796 eV
Rh 15.924790911133735 13.19094100208584 10.79693773741549
Rh 13.989253721807009 14.32766122573776 9.450273845902622
Rh 11.730921158941907 14.528131283296828 10.554073340835606
Rh 9.891068784991248 14.552494450490572 8.87576609871426
Rh 14.252019514718395 11.84192831746539 9.49743489200292
Rh 11.975699354648016 12.739978680573266 8.728986710594874
Rh 9.530253243373773 12.087744121463034 8.344888030171465
Rh 13.963608200130679 14.41053929200268 11.985465083523492
Rh 11.465760272771384 14.317104973020534 13.047387493342347
Rh 15.028393371290795 11.818720146848397 12.616035374728058
Rh 9.507807541594218 15.295736302280527 11.38034337112779
Rh 11.262639731333051 10.654649077891714 7.157860556157631
Rh 12.222414556433606 10.271830377500255 9.430270703120627
Rh 12.745985101059357 12.296667831943195 11.619727258714834
Rh 10.317516153740797 12.219523379236069 10.82145224102481
Rh 8.089533185346871 13.338520609220955 10.210911938759338
Rh 14.002944423442521 9.928921582285422 11.23064176510448
Rh 13.29685809680304 12.893357820600114 14.14833904287278
Rh 8.910004551186674 9.76593317099264 7.553415241905027
Rh 9.024411097151669 13.243443434320282 12.744462957890534
Rh 12.404837714672013 7.948015402961579 10.615360933664348
Rh 11.03190244219735 11.862321070478233 13.629809584198243
Rh 11.448949103658629 9.954505814256395 11.901708515207943
Rh 13.256448894654039 10.276648994048436 13.805336225633763
Rh 7.306634908768018 11.064719112538333 9.227615797065168
Rh 9.596579604323937 9.80515096489925 10.048504108411311
Rh 13.816586580253396 7.960747877963945 12.798153071177607
Rh 10.916231600883544 8.295366379949444 8.49859552271424
Rh 8.005699120806185 11.138250973700796 11.64684634881178
Rh 9.872782945463875 7.343416264845846 10.729650529324328
Rh 8.727025581419067 11.027118754720721 14.093696162224447
Rh 9.124138581313655 9.021106154973854 12.542378440061821
Rh 6.5581684089831045 8.945973310514525 8.081910013857101
Rh 10.755233917421894 9.502923977659957 14.507067531846168
Rh 7.375104560936986 8.79240234725833 10.527364005712855
Rh 11.301704772492524 7.536750368870891 12.894933826783046
Rh 12.751763859200505 8.136775527956772 15.038105265738666
Rh 8.486947930287714 7.4482378543506025 8.558483013888488
