34
Energy = -195.82961691 eV
Rh 12.089281845807637 16.07969664745894 12.24322443939632
Rh 12.172804807600718 10.372625662038947 8.673329487945443
Rh 9.49573717196007 11.51404667873295 12.328827897381405
Rh 14.086918294832998 12.21957516750122 10.685793758397313
Rh 9.710666152306493 12.803026425773526 9.968250939599443
Rh 11.564130965801787 8.10257718815275 9.642403534132592
Rh 7.810547910766746 14.413078351801218 10.477981940253857
Rh 10.202765284887189 14.897920379592625 11.206514357630972
Rh 15.539653704255969 10.869630912019268 9.163587717922017
Rh 13.631837517404907 12.274799299473248 8.26092378715198
Rh 10.914480199055877 12.333008914746438 7.8586110787347865
Rh 13.613292436679592 11.566823722495984 13.25622552068118
Rh 10.404355432663465 8.974933942097385 7.664060216805178
Rh 14.170106276226786 9.223333353152025 13.917266857228721
Rh 7.487016206040748 11.921550404042113 10.77526858769012
Rh 14.401163755240532 7.622156149842064 11.85166528891416
Rh 12.015944310628399 6.908882999096667 11.71670107433746
Rh 9.07307182995322 10.55781271991343 8.923752415293121
Rh 9.980628100244578 9.466945312975929 10.907963707486324
Rh 11.547181008966366 12.935042715873909 13.106886596136611
Rh 12.543940837989437 9.406690347154944 12.017819383485548
Rh 9.559067396254168 12.521769789647694 14.660155332647617
Rh 14.008066249749904 9.078472028241096 9.810174884792348
Rh 15.151038788236589 10.191678000431146 11.774915621358994
Rh 6.8554361753891255 9.827146339663502 9.634014499487762
Rh 12.083464097118398 13.722591633830428 9.791971936898053
Rh 8.838639463772926 9.91212735393074 14.202141225228834
Rh 11.285558425575323 10.560570809937515 13.968008470034531
Rh 11.707971468664345 11.477892698106718 10.863651675847988
Rh 13.415560779713879 14.102201827908221 12.059122280955847
Rh 10.392808556759041 14.994456704137939 13.72449532096302
Rh 8.391911796353968 13.719200515526987 12.765184600329823
Rh 7.792653766614737 9.574528562268856 11.9074342354034
Rh 10.439859632199227 8.301699760499849 13.034963619656292
