39
Energy = -229.21268886 eV
Rh 13.824754471885168 7.115982810886431 8.666638757956857
Rh 14.071577048306043 8.832836875093715 10.555848068407743
Rh 13.216108072220104 9.467375901121471 8.182310676420625
Rh 11.591159575145461 7.629410825832348 7.383631956499708
Rh 14.13583513559764 10.806455512586458 12.230427020526163
Rh 12.90195792052791 9.099146894506617 14.033430900039155
Rh 12.656368894279318 7.229420860234615 12.131482391204928
Rh 12.753584043286022 11.895286753214236 7.666467339410313
Rh 13.061208046160475 11.37351810295419 10.104341959137935
Rh 11.284028536050217 10.047818628939744 6.4323600395589455
Rh 9.529626962015902 7.20430169466762 8.85132074556813
Rh 11.760272137632745 7.836357881831356 9.878724300103057
Rh 11.823421546460574 9.707283352697694 11.664937826001784
Rh 12.024809880308863 11.393311724871813 13.477060646745153
Rh 10.857442149428715 10.410090598946137 8.909810400558912
Rh 12.201729672120088 13.221088838284645 11.797438069221496
Rh 7.627654720168259 8.889125748499717 8.738334091747241
Rh 10.346591925773366 12.432883189469218 7.118011314447749
Rh 11.218365322240082 13.090535427791515 9.41228306616717
Rh 9.278843569108954 8.096393130973945 6.51089713524445
Rh 8.83274821226659 10.417455439544169 7.08084188372402
Rh 9.382497438942774 14.54556123752177 8.458210591922871
Rh 10.603955879824547 10.12228566119872 15.023167823738913
Rh 10.017604752827818 6.6118823304100465 11.364739468950201
Rh 10.217167588578567 11.605525778840764 11.234931182484694
Rh 9.514672141215657 9.06721972314136 10.666376445925009
Rh 8.340801640229664 11.247070989312892 9.531882281484357
Rh 9.678419539812243 14.047360298012613 11.171501029694294
Rh 10.621697307118653 8.205807367253126 13.351372674943088
Rh 7.55429241408962 7.076460588642205 10.477075427430307
Rh 9.835413972272661 12.6567067878977 13.537282227847477
Rh 6.270037297690637 10.83276534904054 7.941697141111975
Rh 7.847817764584789 12.76040686384882 7.486611906796507
Rh 7.499293486936038 13.61645569950956 9.877661026887127
Rh 8.99396301808858 10.256918632128405 13.094414651237113
Rh 8.19988794948912 7.880355292974495 12.773845932549694
Rh 7.058512933062207 9.684077520053819 11.302720310395998
Rh 7.762780979488423 12.22255170783607 11.979344566680421
Rh 5.828117094624415 11.648316358956274 10.259067558445144
