30
Energy = -171.5525605 eV
Rh 11.468191530391465 12.64130923957555 6.432650699336003
Rh 11.409651230062288 10.29665534533137 7.05699755772127
Rh 11.345312643871777 7.979031222602696 7.454869634970256
Rh 9.104446473122856 12.773394499050786 6.832772476801911
Rh 13.58891415028314 11.148441294367474 7.730035555483188
Rh 12.007432302882846 13.03096294897854 8.807196430617878
Rh 8.961527208367308 10.463695199173841 7.514234195661395
Rh 13.117141374821625 11.190549046182996 10.152663615089278
Rh 13.122967818875189 8.953818325979706 9.220753768453486
Rh 8.863955510282485 8.167087468081535 8.15210612080728
Rh 10.647090361458256 10.875801020674139 9.351114289854145
Rh 8.113788081323712 11.198974208057273 9.816352838217973
Rh 9.498636760210331 13.235887293746813 9.154617024527507
Rh 10.723862382930978 8.419024895298422 9.774664453255278
Rh 8.446601187383306 8.8090379745288 10.676308246456133
Rh 9.02186137091813 10.830572323934053 12.188419176329038
Rh 11.293363342688897 7.028199092046337 11.613927228436008
Rh 8.55664324115857 13.153759176069743 11.497640455808863
Rh 13.692460036862833 8.122640166808662 11.359924905225759
Rh 11.400251734297498 11.316191008477494 12.015633336006044
Rh 10.975742800454519 13.576929050623825 11.228750308364422
Rh 9.558859718863681 8.512611497091147 12.975939728451452
Rh 13.945076311427684 10.470927732573385 12.300489919990483
Rh 9.129107975985361 11.6246371580529 14.446621600254943
Rh 11.92459200094885 9.057323899824672 12.846491188821625
Rh 8.624427457246735 13.867746947610119 13.76223486249407
Rh 11.411491214119073 12.085775658251055 14.269996233800304
Rh 10.979470987726307 14.304838118833146 13.515013550038768
Rh 9.567592038824184 9.389552577783492 15.202719469655577
Rh 11.921243475875404 9.896328334054814 15.070563852735573
