38
Energy = -223.11259008 eV
Rh 10.24875200518251 12.432103950085768 13.551318112488545
Rh 12.630853934441996 11.534693004275676 14.248180076446516
Rh 10.020300505322938 13.271254236428714 11.075584081862432
Rh 10.575406922437162 10.307567413128302 15.258035321498921
Rh 12.320241933755323 12.653631640032357 12.074791959894531
Rh 7.7978361792605355 14.055749653800193 10.117132254643314
Rh 10.172500223845473 14.702269453902124 8.9021934920877
Rh 7.899998964007502 12.505251926228734 12.268429200028013
Rh 8.684409975848935 10.369724688243135 13.571490624451116
Rh 14.48625118497818 13.180243398943205 10.983358851035213
Rh 13.515055996653723 10.248298253030823 12.080604709413269
Rh 12.327575672096328 13.947044315100843 9.924214485025022
Rh 12.639812275626745 9.016154932569721 14.223479269523311
Rh 9.112764250376541 10.819856706330992 10.749088555273763
Rh 10.996693984920656 10.300403375933909 12.422701888869863
Rh 10.27680260318026 8.143055875881839 13.830062209619015
Rh 9.18344545553133 12.44272504672648 8.674083495524638
Rh 6.973916074235077 13.190575240563444 7.821293337547017
Rh 11.608080884739115 11.30929016857518 9.935426175729889
Rh 13.99965940819507 13.048616927010954 8.229212328464286
Rh 12.092911589982123 7.986052791460693 11.9783738124532
Rh 6.824015782941027 11.674099237747225 9.807298324837674
Rh 8.748736663123125 8.428129856333886 11.835154645390213
Rh 14.191819639375174 11.101790653217979 9.755550286918272
Rh 6.815507338622763 10.127267173936168 11.843720075348415
Rh 11.555562475756865 12.698425723106933 7.752751277091748
Rh 7.841683704966042 10.668330609948608 7.5523023356391175
Rh 12.950426030388094 10.49373236548797 7.639086470047793
Rh 10.499378124501785 8.84769830138991 9.88953768614186
Rh 13.083762412848607 8.904797150813591 9.789773346384242
Rh 7.622292713145111 9.165043692976393 9.564923110086173
Rh 10.138930352754016 6.331884263520651 11.95534585986451
Rh 10.415980971390084 10.397448191485745 7.691079714227883
Rh 8.844416328335832 6.875439451574463 9.795852232917664
Rh 11.738189239403688 6.615796068790139 9.883212855888022
Rh 11.658074120258124 8.12178677730874 7.724540434598894
Rh 9.033382196180325 8.255071323108547 7.64140613833112
Rh 10.275774250150805 5.972370573725054 7.9408499679159235
