33
Energy = -187.67664415 eV
Rh 6.539260191613946 12.412986000435485 10.691189707690668
Rh 13.853016447788729 10.339629229230342 13.598657098003917
Rh 11.779488907521698 11.123266506451225 6.485559061303875
Rh 12.617125851027673 9.078955440951772 10.490847012416664
Rh 8.882498151400577 13.327951714803241 10.955994680554813
Rh 12.227902418465478 12.200924714772178 12.912610339005624
Rh 9.420940743868387 11.431038227977377 12.830121828029336
Rh 9.020793894897144 9.024514968818407 12.230746621230814
Rh 10.768917741053338 13.547631109942474 9.32405818244443
Rh 11.205851563800513 14.919554862195863 14.33910229408915
Rh 13.308253009882737 14.424393780251838 13.262864354336724
Rh 9.055549019471924 13.84147887823785 13.45549249723275
Rh 13.093593035215454 13.63480911244518 10.352754660424749
Rh 11.096202500816268 14.241047543265537 11.866232973721965
Rh 11.41048316970572 9.79781188078053 12.809778693628735
Rh 10.07208868045776 11.114044372563875 8.331916662690368
Rh 16.32994189721441 10.512477031375415 13.093365125344233
Rh 7.748144665295975 8.382127790309594 10.222450199694023
Rh 13.14697172392937 7.949776190352354 12.823224214516058
Rh 15.029892981099225 12.470396897203068 12.700349843100243
Rh 11.009596246187186 11.395020446065393 10.76274532253102
Rh 12.586660416028757 11.769574004852975 8.72313335142941
Rh 11.002670464705254 7.429828382437299 11.72403535956259
Rh 8.392716406635591 10.796057433201126 10.436410613719874
Rh 11.88327308094896 9.317890815517444 8.12765256184657
Rh 6.975777790606049 14.217535524102312 12.324475153520703
Rh 10.124221604760478 8.962898682804887 9.85235000040014
Rh 15.005491817729263 9.112880051450144 11.49371914302362
Rh 13.745382762491158 11.28664456298438 10.96506551143761
Rh 8.154469667111817 12.661129007559069 8.700012215622488
Rh 14.977747906536784 14.587339567473625 11.507510323754111
Rh 10.70391006932192 12.50265299081517 14.792857597086504
Rh 15.389479193690152 8.252432346771503 13.860854900636102
