37
Energy = -215.33635054 eV
Rh 12.243095099455337 6.843539046677913 12.925855693923895
Rh 13.825969372219953 8.707979034885522 8.317898247869437
Rh 13.114234016713004 9.162617379187065 12.249489943152817
Rh 12.517658316725685 7.549115531215526 10.241460419818232
Rh 13.684622434968325 10.413635412535074 10.18808814915826
Rh 11.365441992211084 8.89733594908192 14.182365809843489
Rh 10.441495473566913 6.044167576701771 11.303778027581266
Rh 9.546361414508159 7.15908812520992 13.534711012396006
Rh 11.98132294725105 7.06576862900671 7.736774585803348
Rh 13.297965752948562 11.208902143175596 7.684970938956667
Rh 10.65205657713584 8.614218938844957 11.699004949374947
Rh 11.459276396585876 10.974081421304955 11.322996749928487
Rh 12.569458425945152 12.649953819279425 9.594048087416606
Rh 12.369913792989548 9.313677995564769 6.255719416556696
Rh 11.512442184141202 9.73660108795926 8.946191704905033
Rh 11.29344583904439 11.405422360049531 13.769454083937399
Rh 11.715493011613885 13.418406272396378 12.002333589847225
Rh 10.050364956375956 7.58134420795483 9.35883283011039
Rh 9.376200608669665 12.309944662963336 12.265617925386506
Rh 8.302946923309456 7.50637162783714 11.27869086822983
Rh 11.602447656973293 14.939776023742793 9.792553565248827
Rh 8.833653802361303 10.443906912080179 8.290248621307752
Rh 10.039172247483316 12.434242115095646 9.692754410570574
Rh 10.766379972730753 11.198556334208932 6.881627874742296
Rh 8.788344480389721 10.148243214756581 10.791596862184301
Rh 10.003336338412018 8.624553731727095 7.099747343829013
Rh 11.07563303127924 13.574183920943055 7.647789385468011
Rh 7.6562628478987556 8.379030185284801 8.898755469119804
Rh 7.223511202098193 8.536884323803722 13.364986488054559
Rh 9.575003593976914 14.673244125601823 11.358200515247576
Rh 9.199979879630373 9.997607107918185 13.417676006755196
Rh 8.581379865264962 12.749497957985088 7.550385373883105
Rh 7.739455921683077 13.125523395677199 10.406572020278869
Rh 6.34980195161595 9.08823634090299 11.048203583486293
Rh 9.105522649552794 14.82589546716075 8.908104404987839
Rh 6.718107092217382 11.06896764712596 9.470654559680531
Rh 7.064570529700432 11.158512416205458 12.388751096635284
