30
Energy = -169.92512558 eV
Rh 13.695707505705576 12.731560134761414 10.083789025949306
Rh 13.117162017390283 9.804389631793292 7.202384935050182
Rh 13.401441090108985 12.353399829484992 7.608020507013062
Rh 11.338972167739996 13.148288170845174 8.956177280203553
Rh 11.458218186165839 12.73897968207573 11.486743739300387
Rh 13.77202458575482 13.22199804615887 12.518868258969661
Rh 13.03573212267116 11.48474342188205 14.332946681958703
Rh 11.052971661875265 11.369142552783487 7.035200285565244
Rh 9.249546683825018 13.535013672196428 10.48829991371534
Rh 9.105541127194863 12.083335011948527 8.424588412992641
Rh 12.235076436246054 10.769034669931631 9.364106340363021
Rh 11.608931130072603 13.488649881661246 13.89760601531273
Rh 6.939593720733015 12.83105811657585 9.325505610455018
Rh 9.425898086912914 12.5656843448387 12.911912099695758
Rh 10.503627862519558 11.391108267313195 14.937466782576111
Rh 7.827839452059236 11.546889213273081 11.268681686412103
Rh 7.421970505306574 10.25195775561117 9.062920045810495
Rh 13.030530491640517 10.848721500210527 11.852805619493337
Rh 9.895304028974625 9.728557146557975 8.706755916839585
Rh 10.950293807721444 8.765741705901648 6.600721480338855
Rh 11.934167091589838 8.203550253309402 8.937754761726609
Rh 8.27042449884934 7.786208946590314 8.94907083853679
Rh 11.514316826200053 9.593383723642205 13.539913478602244
Rh 9.789403217637132 8.86022852566724 15.247288026150981
Rh 11.191967147091546 9.279492364686911 11.105589915526574
Rh 8.853585097346956 10.20969321787283 13.34619987687007
Rh 8.639126093359362 9.191626879465518 11.038947736916612
Rh 10.17006055839564 6.7072745731051935 7.806173966068623
Rh 10.191042579252827 7.055655335017726 10.46267532504861
Rh 9.757265270265638 7.832374475444368 12.87862648714482
