36
Energy = -210.43946618 eV
Rh 11.049318136902581 14.8464843021827 13.758982613719885
Rh 8.805514122434735 14.320180122000897 9.113939144290326
Rh 9.721734654786594 14.699916304439641 11.608963325213592
Rh 9.711060657966465 12.773456850267577 13.238770118156049
Rh 7.61946654120496 12.175676393397442 8.478152134750479
Rh 12.422403601912016 12.794391602762484 13.050338569685811
Rh 12.278093273736987 14.75084944927654 11.51906801308509
Rh 8.641069571825838 12.499897237970952 10.882399751254598
Rh 11.030794185578388 13.3972897277332 9.81690986759502
Rh 10.046257858912714 12.5497663848082 7.602223732487345
Rh 10.991171233441577 11.263797854923785 11.349278170152878
Rh 7.9670713021061985 10.974823813453654 12.793840446796136
Rh 8.999173128801557 11.265445569647074 15.126223163933034
Rh 6.303762713197688 10.140066906156344 7.938432141782557
Rh 7.091196551096949 10.466281956027581 10.391055749395278
Rh 9.548671968137832 10.61775309998323 9.267811575934628
Rh 8.675759715132783 10.263721457339363 6.943970143612491
Rh 11.230657339740397 10.77798192346212 13.944603050077689
Rh 12.022393283140255 11.312384407736829 8.700072242998223
Rh 9.155032376040298 9.17121483734563 11.35882309537962
Rh 13.319628938077493 12.429270290389871 10.640348075415204
Rh 8.021413745867758 8.58894859834002 8.93078122766371
Rh 9.299142379312691 9.071802573536962 13.907221934251778
Rh 11.189901080719869 10.515239238454518 6.435220213554598
Rh 11.440271880906526 8.586556893930947 12.602187133684955
Rh 12.87919709873496 9.005181596090491 7.727984828198532
Rh 13.249869458437047 10.461296312075898 12.3120826125319
Rh 9.529441656092523 6.904952434818138 12.4723392858447
Rh 11.56697497571134 9.007462565728119 10.013990893468968
Rh 13.986512538436317 10.036250779528787 9.845502338690004
Rh 9.776020810746802 7.079535416657481 9.881092606069513
Rh 10.35368789858992 8.454385709457135 7.70863237257735
Rh 13.625722808575059 8.051922704898432 11.40544974628637
Rh 11.79720845889425 6.307259483703286 11.322677213543631
Rh 14.493250236331955 7.613523797627962 9.073759252472453
Rh 12.11838208683879 6.787063749206937 8.839683004334978
