31
Energy = -176.4615671 eV
Rh 15.672504392599103 11.38268508948875 12.080660119736528
Rh 11.630369702464632 8.900077250657274 10.3749635753199
Rh 13.447776227960276 12.144820751644776 15.468080059795966
Rh 15.268808293843334 8.904495151179729 12.120978893085661
Rh 15.339065528213435 13.748081332580249 11.537134991807699
Rh 7.651709016715538 13.994150136398158 9.536141289280101
Rh 11.496459898607293 15.737216723058118 10.322635751835039
Rh 13.395300589706165 12.444823383096749 12.89768298032232
Rh 12.182646550010007 10.381611920901813 13.976389333172447
Rh 11.80708731271999 11.216914723062624 9.311601828884235
Rh 11.220353516451254 11.514722658001174 11.866126335168762
Rh 11.21139383171814 14.173728076608178 12.3117767436308
Rh 10.367004411199131 9.22040590215333 12.509096984868812
Rh 11.750696403339635 8.005750331943297 14.781055160788966
Rh 9.42169370471565 15.518962858652301 8.75511137574522
Rh 10.867139479012437 13.535901530502315 9.246411602408687
Rh 8.924218048704676 12.110074630530908 8.522659737022737
Rh 14.811316848648687 10.3115516220944 14.232770235293863
Rh 14.305636499356275 7.829194883352299 14.471980696943712
Rh 9.124878744676526 15.436014037336129 11.266143388611152
Rh 15.546428610205721 12.966949651580004 14.167808570485354
Rh 13.554538138030804 10.504884357257385 11.013097065270015
Rh 11.13639471302845 12.690823245807868 14.307051605121936
Rh 13.405124209470083 15.353768122960423 11.781494196213858
Rh 12.8441188378221 8.403315478667736 12.53631980536445
Rh 15.310665859937489 15.408609157175276 13.418631239262346
Rh 13.328455500601939 9.559596364799768 16.1091897910999
Rh 9.354538856499735 12.953109778866384 11.040942047162844
Rh 13.110586016089888 14.487310546927908 14.246296976562405
Rh 9.536771557582263 10.452711742704539 10.24777348515214
Rh 13.085811722490414 13.075780567728982 10.46777631593338
