31
Energy = -178.36013024 eV
Rh 6.524102321040364 11.53109444692751 6.772623380005403
Rh 6.962952760440486 10.00762918697402 9.04724371189753
Rh 8.322598440712557 9.82516541940486 6.775459661169952
Rh 6.967013229463483 12.56999103078599 9.019562778816285
Rh 10.402729310166421 11.648340222315062 6.310506302620058
Rh 8.507332330880974 13.112793974145971 7.066740240079966
Rh 9.008474008978759 8.49877886031022 8.834712625545414
Rh 8.193387862401657 11.327877047269046 10.879112108667819
Rh 9.326917281252692 11.174797443318655 8.556813406428775
Rh 8.11904747672617 8.852058028767308 11.27025295921277
Rh 11.199021537179549 7.1708122030503905 8.844493045352989
Rh 9.205994845862547 6.641483760369872 10.520576268533564
Rh 10.889666349087378 9.352288211145137 7.369335010438207
Rh 9.337094910954397 13.508458056426656 9.51334200056871
Rh 10.955797060258691 13.89396376964392 7.646605273380831
Rh 10.851930070215797 6.093270896216554 12.389708264916658
Rh 8.291360227732344 6.8963425335478235 12.8651172352197
Rh 10.825609115437798 11.097578287925481 10.588409996453088
Rh 10.218517242692705 8.219399837951906 13.62531309604409
Rh 9.68867272160231 10.524819206872051 12.808008368828698
Rh 11.942058888776646 11.644923685891742 8.30065389975882
Rh 9.811839963237434 12.996678451327048 11.970394547095404
Rh 10.646562680333178 8.576385804910634 11.188829831825792
Rh 11.776561095934932 13.509096068369315 10.323645650379678
Rh 12.379445148105527 9.331955187861148 9.435386398910246
Rh 12.714479172640678 7.19547583709354 10.995037696089296
Rh 12.656304881162532 7.565990529045942 13.577439370222018
Rh 11.803616582793717 10.053411207245956 14.274660884224101
Rh 13.379785500729904 11.48893929220982 10.409505194094532
Rh 12.108838415500722 12.008390953767323 12.611106320859449
Rh 12.87417522240385 9.558298700625329 12.057100737855182
