34
Energy = -198.00995971 eV
Rh 14.278380044876583 11.091596955555799 12.016238778601917
Rh 13.78721378981124 12.473867735971517 9.92618113945141
Rh 13.515377100050962 8.644470945597316 12.206334640219337
Rh 12.180082314253738 10.543688657993869 13.323515247155955
Rh 13.194639408490893 13.862032413903046 7.865311314104579
Rh 12.766057274744584 6.251546428485024 12.281265315365754
Rh 13.310751503109502 9.955697435821227 9.949174432854528
Rh 12.966006973278189 11.297902829604427 7.752204972215589
Rh 12.682324510393387 7.38561823472418 10.05908294674393
Rh 11.334942730871639 8.063135871796717 13.555166599896399
Rh 12.576451030939653 8.697900803575726 7.888767841032654
Rh 12.371102210460364 12.823027418479386 12.141858967042415
Rh 12.076230700274678 14.354760735893796 10.11627340881797
Rh 10.620760643037688 12.66300440150396 14.193044055932711
Rh 11.166546052144179 9.334294586993538 11.172778041200974
Rh 11.24057770273021 11.676396994169389 9.783934559241958
Rh 10.484265475821669 6.805882057501037 11.412110538484567
Rh 10.89791241317121 12.842976339339764 7.501823720552375
Rh 10.598359875086215 10.293685144969604 7.724371332695665
Rh 10.395166066497339 8.13673213224892 9.107410737402034
Rh 10.120658318467262 11.514966082888757 12.068924076563084
Rh 8.257896467934499 7.605326032129158 10.303686014072419
Rh 9.03849520873506 8.600694185599087 12.528736225649885
Rh 9.91402086413339 10.105034515142272 14.370746186656598
Rh 11.106070972060676 15.3651503360204 7.961699492859724
Rh 10.126268956178713 14.093004691316619 11.911079037937695
Rh 8.232438509651564 13.388028507937685 13.464318165458968
Rh 8.329184980410629 9.224308380363894 8.115820925938833
Rh 9.655515843156572 13.950490306491771 9.43605358161363
Rh 8.376987080813393 11.785934198563876 15.336343203357863
Rh 8.687102866572499 11.794076055851471 8.551755920350665
Rh 8.135251374818086 12.654932126893701 10.992530647722637
Rh 8.640886855216577 10.109544737443029 10.455659227210612
Rh 7.826660620189116 10.851038915999439 12.933511161234506
