31
Energy = -175.12518813 eV
Rh 14.477001010613954 10.67017801275771 14.946147933814688
Rh 14.700488561542755 13.175490030136245 14.698888865922994
Rh 13.95383791505238 14.203300149908422 12.65339683078244
Rh 14.994464263075033 11.613402795319962 12.625417706747525
Rh 14.231364260734908 15.040135289007768 10.395837995606822
Rh 14.666528713567644 9.080803499909184 12.982239224982722
Rh 13.910625095491795 12.54767062209341 10.266664432980676
Rh 13.47047269689742 10.113735744085277 11.017879935900892
Rh 12.389286098260827 12.138624487069535 14.917005646117472
Rh 11.935638397256644 14.231154444446044 10.93929379014332
Rh 12.680143704433027 7.871050782144576 12.063005636775534
Rh 12.94595366719459 10.817544442848389 8.658925672328587
Rh 12.333572205490604 9.855684869403758 13.719500154828824
Rh 12.58905990726175 12.072625184056122 12.436602469314352
Rh 11.317744215542573 9.348228456559989 7.25694873415208
Rh 10.307451598147482 11.582954361451092 13.34076815712141
Rh 11.898386010805282 8.625889886317456 9.555043051005923
Rh 11.298739013385074 14.002074463553589 13.532972465822931
Rh 10.73705640541571 9.565726838310455 11.762402480859322
Rh 9.755949893449973 9.903120968140396 9.230834544038306
Rh 11.217084874132324 11.870407892493075 10.225315689407802
Rh 9.659529515041388 13.43693062162623 11.697118269910158
Rh 8.581762607546521 11.03862862656738 11.447883594943528
Rh 10.69244077679656 11.71542377333705 7.752057622678286
Rh 10.560451011517227 7.08964804689734 11.017649558206562
Rh 8.538900268771153 8.49086451850327 10.996001573992041
Rh 8.845937642921887 12.39362619628065 9.262633493676743
Rh 7.245049940236227 9.966370190035265 9.534597168171858
Rh 7.280379801639694 13.207328230300986 11.046782433013503
Rh 6.2285883441510475 12.311556176202956 9.094904016485554
Rh 4.906179105960373 10.369887922569877 9.275348372600522
