38
Energy = -222.91827134 eV
Rh 11.874981862658634 10.819628679305582 6.440776537287682
Rh 13.233267366256698 12.65403389475667 7.791232318506785
Rh 9.722286197055075 9.831358174480624 7.331404476396233
Rh 11.402343532793347 13.684343595228905 6.415876042109782
Rh 13.379964599498557 10.265101603989566 8.547413011879108
Rh 9.451220593948339 12.062524702541026 6.229805038034918
Rh 9.018172619473697 8.174623959293292 9.108055691863894
Rh 11.877496803095392 8.377590085570857 7.450477071475385
Rh 7.255471805325685 9.351498946757598 7.804422705057296
Rh 10.830181717234073 11.871032789043024 8.538656973804061
Rh 13.31903229336807 9.893057990101042 11.169556825437569
Rh 12.958688519676413 12.340207809885937 10.250591233846402
Rh 9.308709948301631 14.02317810700149 7.839217528709525
Rh 13.361243508867883 7.919504023581564 9.572105163620638
Rh 11.572462878834271 14.261354060563495 9.203412505829002
Rh 11.228673017784958 9.506254800477265 9.568021875849043
Rh 11.059426988176035 6.816793816858781 9.935798990510266
Rh 6.62425172858902 7.640055682855391 9.712288289825532
Rh 7.991332265887316 11.79972100952397 8.407530646656907
Rh 8.923424317564137 10.48642489881326 10.332218155481865
Rh 12.618778107360619 7.540059124426314 12.011882325071364
Rh 8.660253768503008 6.50324164858871 10.975005886809413
Rh 10.311636351491156 8.514547797148635 11.680106833115229
Rh 6.4739702770607535 10.212434289130186 10.059128828128909
Rh 13.21758190091772 11.899220073567669 12.739331380338749
Rh 11.047076904428609 11.135002526039697 11.57809777020723
Rh 9.495195219808181 13.268276986634675 10.215622691280378
Rh 7.684113047574262 8.734137963982281 11.795156722347405
Rh 7.1689580338107 12.538793161238608 10.820765358862085
Rh 10.683838463584257 5.826203147525469 12.392714023745746
Rh 12.025425211968512 9.705358016543912 13.511088588096102
Rh 11.3082879508717 13.656456118607226 11.96453971593722
Rh 6.946958373816113 10.9007675572228 12.731838633893227
Rh 11.291907153636679 7.514079607799715 14.26050338337672
Rh 8.892313513970953 7.321178732127896 13.506302412620059
Rh 9.33721561717063 9.9797248527083 13.527665551371145
Rh 9.035671233419965 12.37968343841599 12.571293174458091
Rh 11.028638094765027 12.018279370077925 14.089969637911583
