39
Energy = -229.45047685 eV
Rh 12.217102103444208 11.773255319562852 6.694292361439279
Rh 13.025093680751704 12.399040073143514 14.276732149572945
Rh 12.0250285735131 13.686354051193769 8.445944229022679
Rh 10.248092305831026 8.651443797597162 9.187710784532907
Rh 9.895772956906479 15.685234549224644 11.821393998171272
Rh 10.266445096844658 11.751848096328107 8.305094814605846
Rh 14.28634966243896 14.218699126397036 9.494363562755508
Rh 13.965976494491741 11.861962482090606 8.5886318768718
Rh 12.640804529319668 6.061311683635203 11.87108352209499
Rh 10.299289825647879 12.53945231802479 14.75608098917055
Rh 7.747348051633227 14.63862703675143 10.731287970321453
Rh 11.527343092447975 14.073870396609555 13.0064390186215
Rh 11.422701216429916 7.84025984219896 13.237334396444478
Rh 10.236406101935815 9.80700997853003 14.435104853470131
Rh 12.28360250685927 9.857293012078218 8.363259006066194
Rh 8.443475716214675 11.095297621476563 13.195932003416116
Rh 13.809677287004757 8.27512074720494 12.239998804178722
Rh 14.155541074843706 9.729981415306062 10.065604181122815
Rh 11.79043860725698 10.972484094068987 16.122078740882603
Rh 10.034093950533682 13.629888339416722 10.05355583304641
Rh 9.268074494484937 8.853540224587942 12.203633112806374
Rh 12.063272503557426 15.058577483817743 10.6580547452029
Rh 7.2841129016728825 10.179579203857955 11.000558391942317
Rh 15.433466900841788 11.97620264399156 10.619688647163928
Rh 13.774388525874766 10.913598966321507 12.23304732152431
Rh 8.282256644217714 10.051609220750388 8.55331120646481
Rh 9.186230059310995 13.336308636918554 12.432297028091865
Rh 10.26090293760575 9.692738901448738 6.866865118774727
Rh 7.856236995320067 12.369693887406788 9.581950105039114
Rh 12.84267057001846 9.737809912096543 14.21265193603961
Rh 11.706443448351095 9.422800062608689 11.231357382130758
Rh 13.626659203321752 13.390010343333623 11.739169668967564
Rh 10.422915227695054 6.896175831137981 11.002431177720112
Rh 11.219003511975565 11.484800229612262 12.73889657931499
Rh 12.10114581735074 11.913200986438708 10.308929936638451
Rh 6.806229367045339 12.541032409499149 11.917930126079552
Rh 12.665654203740374 7.605958343813661 9.781675613652295
Rh 9.667400489099203 10.984353407368083 10.73394945455799
Rh 8.070122450174503 7.9013444101599415 10.1494484380889
