32
Energy = -183.71745848 eV
Rh 11.705801987701784 13.259107903837233 14.058148188261253
Rh 13.373253262287344 9.573526915551385 9.622151522043248
Rh 11.86122870413483 11.17350278199514 8.372590327230217
Rh 12.063987884124595 11.25632727040981 11.213253578712054
Rh 9.324902046453765 11.54137766090927 7.633875056178673
Rh 11.362214133062572 5.8325588784128195 10.311541578451129
Rh 7.5224104744940625 8.12936957178055 12.252815153983835
Rh 9.767596544202904 11.752283393716985 13.97376079149573
Rh 7.173470795222676 11.653846757707734 9.561015670432909
Rh 11.804696280458861 7.7384045926762015 11.930003026991315
Rh 9.743873504903267 11.456840621981167 10.021949871691612
Rh 10.50769993460415 13.18034846900687 11.964254331133526
Rh 12.984470779816146 9.305572171746116 7.1443970731322155
Rh 8.084235644577571 12.314516751538418 11.94323634173299
Rh 10.47193613103931 9.196592509926628 7.495922907029945
Rh 8.977729447936866 13.898376308587581 9.975446453267331
Rh 13.655064953946896 9.431391629514291 12.116183764895068
Rh 9.816828666109487 7.9227150477829085 13.404239678336186
Rh 13.786639225256984 7.267245903309515 10.575508586420675
Rh 9.41979485084846 7.098868092716256 10.98637959129853
Rh 11.50630878648467 13.324447964272322 9.671152939569081
Rh 7.588132172350408 13.329823441236375 7.881799515593806
Rh 10.796207658496536 9.079581419718652 10.072453173697216
Rh 10.075380676357183 13.923517399851201 7.67169365261795
Rh 8.05237861794683 9.41267703702908 7.685372429864198
Rh 12.400421415039332 13.282803566624604 7.295204294087508
Rh 11.455405346923365 9.988123882485732 13.347716752298984
Rh 8.074097835308987 9.237247733227338 10.038386801512106
Rh 6.463060760338224 10.411940870759853 11.574944898071408
Rh 13.337937993348849 11.636958386633209 13.387217447321778
Rh 12.081211320540127 7.517688761398034 8.696397637199293
Rh 9.158650832964746 10.03869660719592 12.242509978731174
