38
Energy = -222.77805674 eV
Rh 8.865102137445122 9.13943127429424 4.231671336097377
Rh 7.887181985428528 11.524340292966135 5.080900427240487
Rh 6.572028563210005 9.338077072932421 5.2271052543481975
Rh 10.11955437438259 10.579378723096516 5.9490825443696735
Rh 9.948770524180969 5.554990830287295 6.114253042880482
Rh 7.713034631955656 7.1398013579248945 5.786466727695822
Rh 8.223709810989174 9.51235489397387 7.209331774395132
Rh 6.159661054565377 11.129386321087448 6.986645936572117
Rh 10.149875687451457 8.052485145935314 6.14433641590899
Rh 8.616828372300699 12.1088804289882 7.547882203386088
Rh 7.846625530529639 4.62086659602015 7.247864189891234
Rh 5.893918771005747 8.527359048978067 7.644971027486142
Rh 11.409963495944458 9.306011464029071 7.954423830643161
Rh 11.304634776203685 6.632058002148196 7.989885833780576
Rh 11.21543262209361 11.843716622534986 7.856671006914524
Rh 8.673048231815871 6.909923945225231 8.088760454741918
Rh 10.17695042720208 4.28734340150581 8.36498903198855
Rh 9.604917256375522 10.55047746576509 9.378787506178998
Rh 7.579711608738775 8.713933061377663 9.607735572887629
Rh 11.440027292742483 9.98270711674024 11.181751615981282
Rh 4.611733253845867 10.281183747210553 8.880786333702329
Rh 6.202042545921603 6.213372497149155 8.321506943178536
Rh 8.268300728450841 5.257775903599501 9.80591049560496
Rh 6.9310892238297 11.178230792654768 9.382257599209213
Rh 11.286967748960867 12.374258677250225 10.367560835846355
Rh 12.585936170315223 7.9621918058900745 9.901598358890421
Rh 8.804963838337438 6.817415083185813 11.734676152057721
Rh 8.675593907707784 12.659974370069211 10.401910800577967
Rh 13.01290421943687 10.67625742149504 9.350654081727352
Rh 8.99247924372705 9.362751143760931 11.793814473675923
Rh 10.084947361050641 8.049025279681173 9.830225339216502
Rh 5.590508759573724 9.312936912512665 10.907101497401664
Rh 10.799800384347023 5.7372579209559875 10.463717887097417
Rh 9.849944466294374 11.65412651754363 12.39238322199473
Rh 6.428251588455749 6.827390965810863 10.792413161885204
Rh 7.246988749095183 11.036440701989847 11.897880008222042
Rh 6.94980391434407 8.343655977070808 12.834370598997678
Rh 11.1584953180808 7.6839597926944725 12.229445053660788
