33
Energy = -191.64152882 eV
Rh 11.57690064403298 12.560642310972556 12.89625317823619
Rh 11.786664953480336 13.63498682671441 10.52606402935065
Rh 10.652022871547457 8.17938738417303 13.637697055605743
Rh 6.977157396098025 13.477007556562086 11.420086899941838
Rh 7.885903864508337 12.081310272044105 9.378103352046013
Rh 11.724880987052472 6.791032859986672 11.687146264516393
Rh 7.26326821006482 6.746351039768694 11.022079182329861
Rh 13.67875097184065 9.792907133229118 9.044107503195116
Rh 10.238638329856217 12.892392761741583 8.522077812705849
Rh 9.434513796883058 6.219324429777086 12.618248165067557
Rh 9.239371337732239 14.132244998468732 10.473585731489996
Rh 11.978889606474027 7.745920777985943 9.37290425298827
Rh 10.940219185959494 9.245443981821202 11.25052781698747
Rh 9.890883019434334 8.280219434241078 7.898433635839361
Rh 13.763404240586251 10.837504030016305 6.699020321974525
Rh 10.30483598912238 9.497453926832645 5.647866535680894
Rh 12.700102321315173 11.198851238111308 10.986251059413846
Rh 12.42097432414502 10.063909582409917 13.312369394211702
Rh 13.453990519403 8.689390254763342 11.347948852222746
Rh 12.286803444934854 8.838637593282808 7.0688357078433315
Rh 12.84663402647246 12.265766154672356 8.631197632885401
Rh 11.156065878833463 10.308746641591835 8.79956778013439
Rh 9.530045360257583 7.221205793389136 10.183564536055187
Rh 11.35536790870673 11.578243950327202 6.6188954079292035
Rh 8.697049190979934 9.64380921923565 9.77161812546745
Rh 9.026129434632683 10.827671547999609 7.478744585542722
Rh 9.864880573931499 10.616053277231119 13.260155614715694
Rh 8.525464212751714 8.606155741364022 12.279542717326482
Rh 10.11322209616424 11.701155929504058 10.842338606220148
Rh 9.006279273723331 13.014379946318225 12.836004497611423
Rh 6.5255410662415665 9.066579300956912 10.717718794689283
Rh 7.699004452173395 11.044404840006049 11.86643091358262
Rh 5.709272738124923 11.331284887105145 10.250709100340092
