38
Energy = -223.18001353 eV
Rh 14.871110918573647 14.03995808371522 9.54892659595568
Rh 13.498398924512843 12.293159103599667 8.3417594757198
Rh 14.3573125169171 11.801253982017919 10.7400358621162
Rh 13.144269080470659 9.931816637722195 9.286138318597864
Rh 12.167597602783701 10.585513052686396 6.932959736188481
Rh 13.797911410752667 14.013418039948514 11.852088009964532
Rh 12.312962330840108 14.167221474514493 9.765060389053772
Rh 13.653361756050424 9.569439953191862 11.794309472118218
Rh 10.727450861431612 8.976802599972425 5.580981235217304
Rh 11.79834906764599 8.176045357008732 7.818961644111359
Rh 11.00619286947912 12.629198287692182 8.169136538670914
Rh 11.74114019025298 11.777405224453014 10.566805956368187
Rh 12.880628694540246 11.823718375720093 12.845008491094594
Rh 12.728365300922546 7.59855430153076 10.272386831422445
Rh 12.803743534196258 7.528440644136095 13.059332408482113
Rh 9.151475991128954 8.509781726170376 7.512412079183475
Rh 9.576985156435791 10.985148162090798 6.690699829604065
Rh 11.297154359420283 13.899227652107108 12.13078185450178
Rh 9.616791758873918 13.378742272336497 10.213503436155454
Rh 11.152315616584637 9.302971266580663 11.366961405892285
Rh 8.471656102586019 12.897190209573226 8.041430609173451
Rh 10.511846347014222 10.128964759969922 8.925256671068697
Rh 10.685362862475156 6.830097462291605 12.05574474178792
Rh 10.252349943429516 11.821697609322628 13.178193303393332
Rh 10.14008653382777 7.565195919089574 9.691901680284202
Rh 9.270951910400555 10.981671951439592 11.048102352063722
Rh 11.720669264613061 9.75010007584094 13.745216260454857
Rh 7.976257179254934 10.55015534394772 8.851601914952745
Rh 9.256277937277176 9.72496394468284 14.159257358573155
Rh 8.777849330134863 13.859095520582342 12.525252043254861
Rh 7.623602941790645 8.116612696031305 9.552215043456362
Rh 8.764858369914771 8.556383720415873 12.031407275739898
Rh 7.233370080226692 12.466571309409066 10.411158359997168
Rh 7.687012701764607 11.639322667997405 12.898819084174765
Rh 6.750128997142238 10.011133952835047 11.060020916001637
Rh 8.44812604805348 6.179163873146973 11.079103627500485
Rh 6.825325977451773 9.364288638465187 13.570668425071814
Rh 6.342051698254616 7.590876315189334 11.707702930057996
