35
Energy = -202.61536597 eV
Rh 11.301256725262691 8.815798849186477 8.781237551292488
Rh 7.996572645227953 9.98293883889075 11.937385441368884
Rh 12.879940961493936 6.919562211804763 12.919956082861734
Rh 10.072167962456252 11.41598969952805 12.396355595728505
Rh 13.93272831372105 11.62747512687696 7.485230628100352
Rh 13.69982072633663 8.490555354755623 11.15151751208804
Rh 11.563323836357235 9.781131362357682 11.057069684647937
Rh 14.987280474543606 9.562747171210368 6.860827403750544
Rh 6.661218320521682 12.007192846003777 11.233537371066094
Rh 11.731742126122086 10.890324936427149 14.346746211803426
Rh 13.311342137050886 11.26222316630948 12.231689213435894
Rh 8.918595501423011 12.067245245681661 7.605845979727211
Rh 12.497511844231342 9.63148722921514 6.6982287014150055
Rh 10.369917269226322 14.446720031648711 11.362856914942947
Rh 13.81984363376917 8.554401683513271 8.738444399905212
Rh 9.013400063974297 9.411809732497318 7.794328710127994
Rh 8.500333395906642 13.299708228626736 10.059697644645658
Rh 10.359194818481726 10.600486415273476 6.107212620848787
Rh 8.969889976893022 7.6996121902845225 12.532555204202076
Rh 11.307448360304063 7.286489450883329 10.957680374551016
Rh 8.468717007779015 13.221774943215475 12.582504907340228
Rh 11.506124953179773 11.479248764625142 8.23710334496736
Rh 9.614588954228976 12.487279431717987 14.66656527341929
Rh 6.680330294431805 12.403171895070336 8.627842775853818
Rh 11.128132842009858 8.659596145927427 13.238928651706686
Rh 13.594988461129676 9.231399728001932 13.684553049460023
Rh 9.481918303898025 11.05557311882864 9.875251657673276
Rh 10.557632743825938 13.868248689217882 8.742568310857338
Rh 7.213788341728869 10.094531353555025 9.529236050412239
Rh 11.667595915042133 12.42990804467293 10.565283361952023
Rh 9.185790789089886 8.476067525773688 10.164882441388944
Rh 13.57177343027571 10.84438633266474 9.743708520630229
Rh 7.130988940448621 11.528751544541837 13.836021657963578
Rh 11.745926776869823 13.12594325297695 13.121979387855077
Rh 9.128081795433095 9.955209297756683 14.22895128491717
