34
Energy = -197.09433954 eV
Rh 9.130332977620908 14.616584098345873 13.075184028010494
Rh 11.240726763064398 13.17550791880098 13.156124469784396
Rh 8.216091295084702 14.114014080906525 10.664223023580226
Rh 14.485671647900684 11.81929724456972 15.714271233462304
Rh 14.177898627369236 12.69225128681373 10.727437427503341
Rh 9.858179980278676 14.547346939480414 8.585635674048566
Rh 11.735664564869593 8.598428550917157 12.525578693948631
Rh 10.269679649596256 10.200132928480079 10.970941003918568
Rh 9.306104035367515 12.52349588026616 14.704477389210135
Rh 15.50280451911138 14.050395237490614 12.890796499127829
Rh 13.016488844321954 14.613561384740601 11.776543936407588
Rh 10.972595619994415 14.503607717420703 15.327375092419306
Rh 9.020787303601262 12.14820673684292 12.076186865821693
Rh 13.03697985124944 10.029399810606153 14.354506391707375
Rh 11.300850229192944 12.685507943693032 10.65475757211817
Rh 12.78235118902606 11.497874771796939 9.043981399835193
Rh 9.304760443067712 12.130786079497843 9.403801276344991
Rh 11.338667613737872 15.960189144990782 13.222399844322151
Rh 15.495975117227253 11.334568343321475 12.344883016071337
Rh 10.557924563945326 15.039180017262034 10.961437302851923
Rh 13.678441614371987 12.542415930194709 13.54893137030244
Rh 16.679392280654458 12.264717985938228 14.388971974599077
Rh 13.131246778034406 13.809617077655918 16.659781838676412
Rh 14.284797036355604 9.082962391896281 12.227106285394624
Rh 13.352810183460333 14.86743877785503 14.369375435916073
Rh 11.066793495115274 12.612866480353755 7.537660146486104
Rh 12.537398041548354 9.183646175595005 10.110362970460663
Rh 10.706574332127174 10.15479112987668 8.457596835426772
Rh 10.564448620649232 10.624938212320515 13.58124690682095
Rh 15.58061546055994 9.852633283325853 14.408358884483759
Rh 12.634030837019212 10.931538537991532 11.90065917178439
Rh 11.809492518707929 11.98341305363002 15.470209654928471
Rh 12.389337477910704 14.24145631198493 9.09528556856746
Rh 15.519849867314104 14.204051446964186 15.485517526206769
