39
Energy = -228.6005913 eV
Rh 11.995491600680792 14.741771432876991 12.651871354259294
Rh 8.28711385730027 13.739667485714694 14.254769855810324
Rh 9.488090454693507 14.37235858544272 12.079882020986513
Rh 13.873892684404252 14.013487951002244 11.026719576035195
Rh 10.676755598119842 12.993863133334969 13.988537294649127
Rh 11.365758808189586 13.824498728613806 10.372260976542593
Rh 15.524656995743463 12.960941648867857 9.461389812313737
Rh 8.908097233058761 13.177958986131003 9.849852431599192
Rh 7.588986946171178 12.57431995914813 12.09340265612396
Rh 12.513909896997829 12.229840749954276 12.350999321051328
Rh 13.225892137391176 13.710651728436865 8.539977711611034
Rh 8.731724624028404 11.247104341927788 14.118475310305591
Rh 9.947119044651915 11.713610131686771 11.79394190823268
Rh 10.738161592069174 13.447539785563587 7.883283525017699
Rh 14.986566349856956 11.758261532037938 11.76873119738405
Rh 11.18218460768022 10.466873651590975 13.780599651772695
Rh 8.816005159052972 11.484063755281817 7.879467274490543
Rh 10.95864346701466 11.447094475093479 9.419706440235387
Rh 7.297914379780777 11.207739515950124 9.995605928134555
Rh 13.707282250043122 10.071202758177101 13.18895424717235
Rh 13.507114521418162 11.484685250778229 9.755655247132086
Rh 7.046978759941336 9.624942658381496 7.975238835118842
Rh 11.860764322395934 9.8561046837941 11.309871776177252
Rh 8.155126566074594 9.776421840054114 12.074944051225172
Rh 9.235543177109982 9.61048860490134 9.703543774868281
Rh 11.911231438629253 8.067891272588117 13.31808834699159
Rh 12.544842873796071 11.506862788276239 7.374262074024155
Rh 9.425337630729675 8.69683482248641 13.980669885817237
Rh 14.526798114001343 9.3618053015388 10.807974343172285
Rh 6.704495818182818 8.739790161217986 10.32698088211525
Rh 10.626225138710444 9.704846212222487 7.466053752588781
Rh 12.773448281473271 9.232565141845383 8.886288500031489
Rh 9.975292651096309 7.980210144659996 11.622783144557015
Rh 8.493940491451411 6.928705963454823 9.90582397545402
Rh 14.358991307954785 7.682914016812441 12.731104528109938
Rh 8.78178659651964 7.882782178192567 7.562956914569849
Rh 6.471410938339709 7.146735096545216 8.387963428842767
Rh 12.647570375671831 7.485828757822222 10.857938425368667
Rh 10.812255818426246 7.719732376068607 9.10800177930316
