30
Energy = -173.8708048 eV
Rh 10.021751112067276 8.955455754898143 6.637227660439067
Rh 11.864763200994922 8.972649620952781 8.467570196151893
Rh 9.78039846808139 10.691416613761325 8.352487797480913
Rh 7.797719439896932 12.281071388689636 8.42922897527461
Rh 14.207430527362204 9.959310917136245 7.958891483233205
Rh 12.22657664185399 11.483849614457265 7.805806524745957
Rh 10.266555702410654 13.120110208646024 7.840040849815132
Rh 7.7308716864530975 8.145275045449594 7.1323825326029295
Rh 9.507861981765625 8.11182729966811 9.009932268655533
Rh 7.376887113386898 9.801052520983319 8.914313585720611
Rh 13.673179576461457 9.236589917527008 10.319613383700922
Rh 11.659812297933401 10.872678509588068 10.309874609568098
Rh 9.572706750910466 12.575116039297336 10.213685347733527
Rh 14.066712595505766 11.788124485308684 9.660320405657494
Rh 11.995698980755462 13.40492770026559 9.674591592704429
Rh 7.115942478689368 7.3478938880885 9.6262665796984
Rh 13.738449459410122 13.52281698468215 11.449156118659834
Rh 7.178236934159408 11.648127436863316 10.809285232560507
Rh 9.206942737105406 9.996214519982232 10.909186496892039
Rh 11.294147877096677 8.293548979066312 10.914496803762214
Rh 11.340499091478087 12.747966038359818 12.122607643248339
Rh 13.45104083687349 11.132395397657014 12.161398214316373
Rh 8.862895457784925 7.485515385760266 11.480173334434191
Rh 6.77062758247792 9.120885288757467 11.387290975264891
Rh 8.995147712755578 11.904711404927491 12.687285744897757
Rh 13.055151691734336 8.694626497938055 12.748748320116743
Rh 11.048664104859611 10.264711595460897 12.826141407641964
Rh 6.634518603464586 10.926287193425638 13.154301765942064
Rh 8.59023800778838 9.364272665450223 13.310142424471685
Rh 10.60265403642686 7.784653774896075 13.321634412553077
