38
Energy = -223.02863462 eV
Rh 12.604707481784397 14.067093592471064 10.532710854728958
Rh 9.48937685937119 13.684115783770377 7.503597956524253
Rh 11.983524714113887 13.344811282331724 8.152892927448956
Rh 14.328055304189705 12.783008096252239 9.198410547648717
Rh 10.215319627752057 14.540454182806894 9.845776632609716
Rh 12.3212232771368 12.956639450544202 12.947971327723783
Rh 10.433038392313819 11.309935653222789 7.547855162114455
Rh 8.37406697499077 12.75034823760074 9.595487168641698
Rh 7.857258951575092 11.620963215773873 7.405661620565467
Rh 14.61704941343177 13.35787390653192 11.814212332067717
Rh 12.835289069781638 10.784479950164332 8.449620753106194
Rh 9.628476504151203 13.1070672799467 11.9712035896185
Rh 10.8294910782453 11.953814511529934 9.945242222351869
Rh 15.021382376976012 10.327635896052215 9.970887327207603
Rh 10.365631811853897 13.473800010592111 14.413863871684564
Rh 13.169729058697111 11.47224370307911 11.082227911229973
Rh 6.673037848817724 10.74857639159495 9.500336926007408
Rh 11.130950684817876 15.122803183095563 12.270431023986557
Rh 11.114112371514178 8.812201723698859 7.934926098695932
Rh 8.700159164896663 9.435839958833766 8.227927705904706
Rh 11.511925212426299 9.33683316352818 10.256729831090965
Rh 13.874230178475775 6.69233220189454 11.066176674862387
Rh 7.416418871014737 11.725297788109803 11.853029092392935
Rh 9.29618945421303 7.104368129766422 8.850083810790762
Rh 13.455048041396362 9.097983089075349 11.88303342553506
Rh 9.004983699135906 10.225296110533986 10.526202001915227
Rh 10.966209093086432 10.805358531840765 12.2477708036675
Rh 11.646911637932208 11.125711364349295 14.578309544739867
Rh 7.348188885437845 8.282965950439284 10.220568187154901
Rh 5.70649003945298 9.753992993381486 11.559838596408625
Rh 11.576798137973581 6.802464189608362 9.928387072357273
Rh 13.58588104851409 8.403848735011394 9.27268474930874
Rh 9.067289417422996 11.3664120604226 13.790281628499477
Rh 9.647116789554168 7.841099109799821 11.316531717461965
Rh 12.812677113910052 8.935621648171411 14.278027854049174
Rh 7.946887438556968 9.312981386465012 12.65810084354416
Rh 11.860192379087247 7.307147229100428 12.468854810870633
Rh 10.284003166571116 8.925901879180772 13.633466966055137
