35
Energy = -201.58020184 eV
Rh 7.518262555573418 10.398476496830655 11.69446756697209
Rh 9.595756214718326 14.746045472050952 9.983910740952643
Rh 8.447689551543089 12.576447908567493 10.691870000155959
Rh 10.278638637767685 12.475020529489848 8.99064025992366
Rh 14.320801925223204 14.702413776957787 10.498645611509236
Rh 13.501818603990046 11.532891957040377 13.337398225173837
Rh 13.645085053802438 16.3746588104533 12.179217749448899
Rh 13.346519666551279 13.936253185483276 12.775882313195126
Rh 12.93583994626312 7.174326942568597 14.887974240418883
Rh 9.412990921862304 11.621072367237566 12.976839965243817
Rh 12.524773521941906 6.39582649772371 10.469553961079063
Rh 11.567123089201285 15.529638444608622 13.478656381368632
Rh 15.106822878840825 13.065674002339405 8.783068391407914
Rh 12.606523341719294 13.467957363001329 9.050509034410858
Rh 7.85779142475965 13.357799794527246 13.880218397053637
Rh 9.971470298530859 10.46001543408671 10.603561491238164
Rh 11.805688891896313 15.160849271922807 10.889290076628765
Rh 10.786811592423332 8.068412923329948 11.031986791352043
Rh 14.833940313842838 9.827775247762233 11.840321251343777
Rh 13.552565577255201 11.769748127793381 7.343493500159326
Rh 11.495429380952586 12.551341707736368 11.376906795706157
Rh 14.09958690330956 12.118821908639775 10.91682658502222
Rh 12.27586072738632 10.901647285406613 9.301937786979373
Rh 6.357428312478374 12.498768980436926 12.137804098969909
Rh 9.24685924027733 9.095323252076524 12.810678204816739
Rh 13.281382573131838 7.746743150092832 12.436747072901255
Rh 11.40077901536791 12.797929494704722 14.08620383414957
Rh 7.557399258403508 14.801446460604796 11.716008598192227
Rh 11.37194588634991 10.117788787069523 13.972518196974407
Rh 10.997386877275202 7.554288450181873 13.522836370989904
Rh 12.256883213331903 10.015402664310715 11.713133147584971
Rh 13.37352309785949 8.603547661293165 9.949093557261182
Rh 9.822498422563756 14.162279259144192 12.520207186873094
Rh 13.839956014078727 9.328621509914965 14.404714406839714
Rh 14.840195916179097 10.447540608894 9.172882694464358
