34
Energy = -196.65854438 eV
Rh 13.754123894274327 11.095812473538778 10.617964613259112
Rh 12.150572550807695 10.083046973062904 12.398141216949918
Rh 13.28103927084363 13.619265285170473 9.971074180976485
Rh 12.92373044703259 11.89105193328246 8.202131731498676
Rh 12.401544501187848 14.264493076591013 7.5743707700800185
Rh 13.685564029120927 9.556031512307152 8.443104006614368
Rh 11.626178978116844 12.480654307287685 11.47069449775096
Rh 11.505156900697541 10.348538102203374 9.766072849058848
Rh 11.168196657017306 11.929200517244931 13.919410248730598
Rh 12.911667519660032 8.132409729348765 6.5086935593272335
Rh 11.389634121906246 10.084486891154167 7.082350728640255
Rh 10.3456066952341 14.06153259901331 12.96079086961708
Rh 10.65505464337526 12.484555214321336 7.205371096146739
Rh 10.808264848860581 13.772858515177482 9.441000655025906
Rh 12.172536536362774 9.875409576950704 14.923256662774529
Rh 13.246958482262563 8.475015387271508 10.788082140542434
Rh 11.800262650413693 7.80943457601847 8.784471338879387
Rh 8.931510463921239 13.412332586460805 10.997028829866334
Rh 10.385381961045013 7.852526083802996 6.658750561312979
Rh 9.263848035785735 11.648200740807892 9.201045051081195
Rh 11.414512104952928 7.895319506840474 13.473977338916429
Rh 8.880618585339956 10.635580995384807 6.935006530281649
Rh 8.620318543862814 12.118287385654233 13.31428111245832
Rh 9.770309126186191 9.78043359868524 14.016969483305568
Rh 10.663530104295779 8.17330503410241 11.059411772749534
Rh 9.661940019099927 10.578883546420176 11.590089338131405
Rh 9.47245780910139 8.921784170922741 8.754893101951605
Rh 7.351447630037625 11.496510836427568 11.037135830073755
Rh 7.202791452005253 10.06181496642676 8.897576625182035
Rh 8.957038557166683 7.622197931529742 12.93594285012956
Rh 7.413582812623397 9.794324103343344 12.988617470396097
Rh 8.072377105419951 8.500196027692692 10.72453814051693
Rh 5.770991094465899 9.513751590943215 11.01292199144722
Rh 6.521841887216007 7.452158371805172 12.479087228744303
