30
Energy = -170.1957107 eV
Rh 11.525891003003991 10.288707398821547 6.610130605792485
Rh 7.783217746108611 11.01944995170497 7.150839651184472
Rh 8.204833074207171 8.694023034217118 7.37443730315811
Rh 11.865650669583665 12.715461340465758 7.306897405019432
Rh 9.957531821352589 11.424352384150522 8.25259596542054
Rh 10.429269385088398 8.791875210823495 8.410474462577364
Rh 12.947853971819091 9.564729441641378 8.469373428875945
Rh 7.740046493278926 11.435092212867595 9.55055402473573
Rh 13.268760897697357 12.069058338285583 9.122414182912637
Rh 10.164994926593291 13.755798229542378 8.969580899927795
Rh 8.248952822787748 8.979984552242593 9.784772157567083
Rh 11.369415956965709 10.549391786662866 10.182339229823977
Rh 14.766820019257679 10.053185411841689 10.04282941904391
Rh 8.323595577313815 13.557634679073804 10.645936573071639
Rh 9.727204406710634 6.958278268701517 10.28457937240011
Rh 12.009219886383935 7.988915805899201 10.359354488114192
Rh 11.508921887445924 13.042164743872323 10.78689381501321
Rh 14.225896594629038 8.12755244175327 11.371742607042512
Rh 9.40660788896152 11.547102117884172 11.464260920112347
Rh 6.392736388860715 9.962210517902843 11.103544626170317
Rh 13.371208165267854 11.400098919301195 11.61756639454703
Rh 7.755583282741904 7.737710658784164 11.87405491836022
Rh 9.963666311518436 8.969131563086712 11.847905411672476
Rh 7.96964165770905 10.150822676259532 12.96163293189145
Rh 12.48225670579282 9.347701441728521 12.544792630614127
Rh 11.003552821482216 12.996138720082017 13.143584949550066
Rh 13.269503168140396 12.40663028330837 13.783269876672467
Rh 8.545170365112144 12.565280531048094 13.61204314900549
Rh 10.357605689224656 10.70074305870917 13.771289395415932
Rh 12.552408561902885 10.338792426279905 14.738327351248973
