38
Energy = -223.1251151 eV
Rh 15.75601020413001 10.242226157129824 9.235603449634263
Rh 11.085797898730332 7.285336412644594 13.030325032837935
Rh 12.233107557523452 8.235365417737615 10.962479611109362
Rh 16.218571798005513 12.77570235191761 9.174187160612345
Rh 13.517498224897508 8.056436906157408 13.173557544961826
Rh 13.360093910837524 9.313712357900629 8.83181234521341
Rh 14.618615452734849 9.170506319774145 11.16817465173101
Rh 13.894838549757564 11.897929503194693 8.65799532919655
Rh 14.927180244677452 11.702459495468398 11.171279660229096
Rh 9.80032408447437 7.518148233493204 10.756585134727867
Rh 10.996066519942058 8.445952466723613 8.588375317097153
Rh 8.773063225092383 8.340024615302415 13.023246828740072
Rh 11.9648665900819 9.363879736117944 14.788733021140926
Rh 11.445836016581497 11.010166901037756 8.209917658783741
Rh 10.875148179640876 9.79377325285892 12.591831637119641
Rh 14.242397929889213 13.975082051780555 10.172499920864288
Rh 12.464660065020318 10.842555692908356 10.654884505773213
Rh 13.39263885890996 10.609524354872581 13.089748183201245
Rh 8.515845083214675 7.67883091654977 8.580979251372925
Rh 9.909573928603347 10.063475673797019 10.201139437594687
Rh 12.905530682127274 12.98423539517359 12.167335744975782
Rh 11.855153256213416 13.205193402978992 9.641144151648692
Rh 6.532212918405952 9.173942267623481 8.369052336393924
Rh 9.424693818348207 10.328395266259667 14.592699339249167
Rh 7.540380888263742 8.698371068036382 10.725948809538853
Rh 8.9199929203434 10.080815795869425 7.837105670315334
Rh 10.40456819102619 12.248177057234285 11.627462236558081
Rh 11.420014080699938 11.97671946253906 14.051462537109298
Rh 12.294993632267065 15.269935125742345 11.140727196864324
Rh 8.277811415892097 10.69519421144333 12.179257637196033
Rh 9.460954708453455 12.436674627841276 9.130807972575493
Rh 10.911692164795465 14.351553707603607 13.132090886649484
Rh 8.93287664800076 12.698766982141981 13.699487768602724
Rh 7.40990154151395 11.06079497906922 9.73793923050326
Rh 9.867984584799936 14.652295751281484 10.590396815610665
Rh 7.933065287180679 13.062498261357998 11.224010222951584
Rh 10.387875890464294 16.640990485587537 12.111007762217213
Rh 8.495672268768082 15.014064033593991 12.751817038583582
