37
Energy = -215.52651097 eV
Rh 8.586516114710733 8.66550266586728 5.003161575036421
Rh 7.179710522519486 6.619478357884904 4.433067553821989
Rh 5.951006502274255 8.571471423625452 5.437625616293696
Rh 10.901205752222445 8.054912267349048 6.0527367856990955
Rh 7.32179113938639 10.545800960702046 6.385038838649916
Rh 10.115413134170057 10.548210018362756 6.1794274794318795
Rh 8.753233901033108 6.498462487727109 6.396020552790884
Rh 4.745986396756972 10.302401793122 6.924756195772144
Rh 6.1857312448413495 6.3298883253493985 6.760316686595023
Rh 4.077821401860943 7.844739416868554 7.110351010719057
Rh 9.3183668211151 4.666115245156759 8.263082600721368
Rh 11.425921985883875 11.820737117170843 8.333438453322326
Rh 12.284343450256387 9.618018197539529 7.414057723308849
Rh 6.445532619298049 8.579729530844924 8.037503063923712
Rh 8.8779922980257 11.467280210280338 8.213318526218503
Rh 12.80566158829152 7.148260650864575 7.864769951659935
Rh 10.429604274994269 6.9352785660653105 8.33598558215564
Rh 8.853814903991278 8.827674564459395 7.584525497352362
Rh 10.715636182831567 5.459122551725242 10.256673562525826
Rh 10.673732755232432 9.436414899481253 9.260558964512327
Rh 12.761798737705785 8.380854963448805 10.047863143095972
Rh 6.261826500070406 11.106888714326956 8.739202012520327
Rh 5.125675094616392 6.603089910909408 9.101039057369883
Rh 13.098114538445003 5.868651759073765 9.98240017277098
Rh 12.386030015742316 10.736195504968661 10.6554260486141
Rh 9.27518350167049 7.525051276043831 10.655143713504986
Rh 4.592550869685847 9.287776974379726 9.611580162753246
Rh 10.061940391939489 11.787111990125418 10.542450074481431
Rh 6.084490835985535 10.48527742047624 11.334450875237998
Rh 6.571333415407234 7.9113239960665105 10.671419035956282
Rh 7.720257716730607 6.3910645066891 8.912714381445372
Rh 7.630363309449788 12.472264431399843 10.303594632082245
Rh 8.207020437375133 9.842558275348082 10.092998110906251
Rh 10.319787669174273 9.626718647245106 11.900775503953053
Rh 11.4759907513168 7.376596521147387 11.8627086525247
Rh 8.443612674218567 11.36436788878432 12.456553950975321
Rh 7.9398894162799705 8.899596834629673 12.488153116805988
