37
Energy = -216.56688961 eV
Rh 14.23212911637412 10.798921904320629 10.889328089902522
Rh 12.648997029649799 9.181904060371005 12.099783909169465
Rh 13.46950620331326 8.55129008307971 9.735486259454492
Rh 11.965014497016394 11.657938838099245 12.507693578418843
Rh 11.44120335528698 9.85063386522805 14.278601070287499
Rh 12.485651556425806 6.7191063562937225 11.258922226420301
Rh 13.92944290457785 10.58559294835038 8.2357396394972
Rh 10.78591397469215 7.550795763941345 13.024289268514945
Rh 13.149320523286539 12.902274810904796 8.645694205849955
Rh 11.95769539465319 13.56620128726651 10.75583213400741
Rh 12.18480869555544 6.57250964226883 8.704961352665592
Rh 11.96875916801748 10.919712157580761 9.984994129029639
Rh 10.357199547751724 13.886670239196153 12.773257025202778
Rh 10.129749991523433 9.731739403968788 11.945151793455427
Rh 9.57558128902605 11.636806975860877 13.664421462213236
Rh 10.019819675789977 6.208115621500134 10.887361869154038
Rh 10.825046970729709 8.370436247883124 9.904533028369121
Rh 8.968112926335046 9.128361575420097 14.195814600471838
Rh 10.23798375215469 10.227781956602632 8.220101229844985
Rh 12.227813975364036 8.886524727992352 7.445124158644472
Rh 11.87985679466401 11.462502445091099 6.8328175630032115
Rh 9.508083777947842 14.503522394368458 10.377149008314056
Rh 8.397411380084966 7.896354592174435 11.931120139089531
Rh 10.055587980791863 7.487627640963725 7.5490196343439155
Rh 10.548086801233884 12.864100704784176 8.60985946830998
Rh 7.901898680586656 13.072096842187209 12.112124285395922
Rh 8.400603832958163 10.110998854626335 9.926692604964577
Rh 9.852681099591825 12.039242432305919 10.98505925636809
Rh 7.631326990561917 10.408091281951496 12.415343513220636
Rh 8.306769803920169 7.577923477991203 9.40368793609012
Rh 10.218933905459199 9.516696600661787 5.8465800348960615
Rh 8.743609690478594 11.781140088763925 7.037196611328418
Rh 8.01051577720928 12.716024057949976 9.369751899185006
Rh 6.357433447668097 8.9429794937209 10.698956838174665
Rh 6.16847407341026 11.580165674341677 10.789328171301667
Rh 8.071965138422588 9.188221218112629 7.377014546167002
Rh 6.552493994091643 10.96365916401826 8.329694540035323
