36
Energy = -200.31746633 eV
Rh 11.91576352528698 14.25891034792883 7.054828961695374
Rh 13.150114432677867 10.781564694225413 11.508870999307488
Rh 13.061049405447916 9.08432394888139 8.56300478519391
Rh 12.138976867169788 14.954863301647498 9.574111937891672
Rh 14.431600910509356 12.274818581338957 13.144555123060258
Rh 10.871726876322807 10.041028255729334 14.604696834654597
Rh 12.078245985517412 11.566775384931919 9.238538871110327
Rh 10.124314443704273 13.51744376948469 8.756669801278099
Rh 13.694011409164087 13.275344114489908 11.062546330301556
Rh 7.833485612782072 10.478904355801706 10.720323012372045
Rh 8.049463662709671 12.31228296097579 8.375672248020834
Rh 13.817339150872776 8.503331577875862 11.018111624482009
Rh 13.34580520984961 10.295439798408145 14.146569197588825
Rh 12.518373702814117 8.216115648958557 15.016194010355383
Rh 9.554084182952712 12.889388249183598 6.422799465109343
Rh 13.433565332284356 6.792078452570629 9.104210944220224
Rh 7.889184275346771 9.816066751237367 13.242196857622481
Rh 6.873555275979356 8.416190924985704 11.627602715201315
Rh 11.551105105804911 11.658549457388917 6.862414297559726
Rh 9.568524964047151 13.535200458345813 12.913823230005448
Rh 8.668708134769288 13.942302332547696 15.100319726760889
Rh 10.007072258145678 10.984368956183856 12.22130008377678
Rh 9.51122394500075 6.308781692361234 10.847390714753153
Rh 12.403232531451001 9.521848359897033 6.265336010157061
Rh 14.038363137034413 11.201423574110754 7.443066743047849
Rh 11.778940518816711 6.86361222570667 10.776045121567368
Rh 9.34096201097163 8.566973389412153 11.708341288152425
Rh 11.854404744897021 12.342062175950964 13.502941396509042
Rh 9.075058320630582 11.712709114577683 14.7095748000508
Rh 11.774761395124228 8.66364708576493 12.669848679642609
Rh 8.588981937823359 12.93711250869851 10.843314012187156
Rh 6.218849095563548 12.202406812267212 9.973042359129698
Rh 11.2290838786605 13.17747796220644 11.095174489700305
Rh 13.769988169084135 13.397224283800535 8.526916084837532
Rh 8.647252409135893 9.491752026151241 15.539531711851804
Rh 11.269820461247681 9.33094540291237 10.225564982913799
