39
Energy = -229.03841267 eV
Rh 13.10103446268671 8.101543442588488 15.325556851305102
Rh 14.259970940710904 9.89960898828597 14.095187053067143
Rh 15.890351545547954 11.269162450897802 12.82538976503933
Rh 13.56701101512532 12.208807850642057 13.19123000299695
Rh 11.841710890835996 10.323551810560279 15.121087876818532
Rh 12.484321572373613 14.431652716167015 12.78556279971461
Rh 10.945223269201659 12.41852537186547 13.540960925875025
Rh 14.325772739315303 9.843648421710856 11.43571165194752
Rh 13.321538204274601 7.856198624191502 12.787825979727728
Rh 11.000688660042176 8.123710632387786 13.948828529673008
Rh 14.670511692390395 12.262394080497996 10.800641870260366
Rh 14.363873067414925 10.13661064247455 8.923680977581999
Rh 11.921642822298471 10.16661363542417 12.611954214657533
Rh 10.1192198590441 14.214299056202014 11.783657161633162
Rh 9.55182403963268 10.272089348167759 13.88673079630371
Rh 13.539038030929875 14.376831398944221 10.27712195286189
Rh 11.790174997105636 16.050076818433233 10.956998649429124
Rh 13.524002879740708 7.89682014505049 10.107701019187356
Rh 12.019604673396477 12.422354106500684 11.120006979077942
Rh 9.34051514420523 15.859432768089953 9.952227669288881
Rh 9.758001921754184 12.245944773486663 9.985993938088779
Rh 11.218020018380232 7.869634854355065 11.302628681136861
Rh 7.851043045237654 13.892775411674688 10.476606949182427
Rh 7.261228903530236 9.90198947071232 12.632552906758436
Rh 11.23727175341513 14.27335722588199 9.200652615595665
Rh 8.909847619045753 7.966669276497127 12.565908713114368
Rh 12.028070398507342 10.063862071470096 10.022791827096428
Rh 8.635728861094218 12.123238071380628 12.318931762562139
Rh 12.93098846234785 12.259062561868822 8.728114518415037
Rh 9.656751040886991 10.031800682162968 11.227721922607262
Rh 12.111725643914435 10.178359105761212 7.430748834215349
Rh 8.882655314657935 14.08658781770633 8.102860530085641
Rh 11.36430326009552 7.953301466466525 8.657863136923423
Rh 10.602667123588914 12.257381551583773 7.591047643782378
Rh 9.053542030260752 7.824839781811097 9.89139883970602
Rh 6.478880745126306 11.772655249582652 11.01951886471669
Rh 9.713752757106553 10.010168453128095 8.566837788973416
Rh 7.660309582864928 11.853930077184279 8.706165141902764
Rh 7.441239775786894 9.690304440808235 10.014139311571093
