37
Energy = -217.04179801 eV
Rh 11.226505295326419 8.140281171045988 8.554576587167709
Rh 11.567514103953792 6.135313289388973 10.09348106674259
Rh 10.852584315381247 10.13908200293171 6.939701355043282
Rh 13.121523734958421 8.195899249675652 10.409364682361522
Rh 10.42573004934199 12.357468201611018 5.545257430200502
Rh 8.529227495835624 11.153794956742942 6.599996391494094
Rh 12.609296243366028 10.248843107689149 8.830284540037809
Rh 11.965009674199736 12.377634856315003 7.4783806307048355
Rh 9.456005328469717 13.11682628951035 7.904138652446591
Rh 11.647496535761647 7.25612208198764 12.38935624937065
Rh 14.447142115576227 10.408049701939357 10.66723030934867
Rh 13.806927624644572 12.525655889265446 9.193917201756937
Rh 10.220038409558937 11.168813448823201 9.376847147285957
Rh 8.860215135989762 9.262309862387303 8.266753934305795
Rh 15.563538131740323 12.702726178525829 11.014172931986543
Rh 12.234443479771484 11.589173037770752 11.151327033745998
Rh 13.355008303318328 13.909410771137772 11.330516811615862
Rh 9.26697944555017 7.242171097185014 9.898901845414214
Rh 10.840814191622457 9.20124205549534 10.913013832451572
Rh 7.713335785464343 11.488104359731915 9.072883870582361
Rh 14.186215899593654 11.815208554693003 12.90076527900841
Rh 9.85178068016699 5.435179884789095 11.755925587385766
Rh 8.968194701365716 13.345876828939302 10.479309337989351
Rh 12.91668727134289 9.551191361638953 12.634194516707774
Rh 11.373113727963673 13.530122638857495 9.636091597252104
Rh 8.24208940241875 9.49051587220958 10.720416774096469
Rh 12.902330289346512 13.860217108214245 13.796811325237103
Rh 9.694035410400051 11.33705872252322 12.032902156398686
Rh 9.022757145532527 7.687045092306168 12.394704156813892
Rh 11.73303835717166 11.624573799291513 13.732931240776013
Rh 10.540064002474073 9.342889033651156 13.571062332861077
Rh 7.201610608637965 11.733310914969428 11.593762920121854
Rh 8.515271593973932 13.447800529749152 13.02215992523909
Rh 7.909561739006717 9.807302738114345 13.277082867830142
Rh 10.905233396943359 13.67045636234572 12.230200675116683
Rh 9.351082234273056 11.448769395776607 14.604310101990926
Rh 6.921321844108576 11.94813264010053 14.191271262061093
