30
Energy = -172.80053717 eV
Rh 14.298857905800842 8.019600052544638 11.93100762945848
Rh 13.575594234822182 8.928920358563891 9.685028198622625
Rh 13.591940667415685 10.38112980984771 11.796927225003973
Rh 12.205556424715503 7.122524626886298 10.969096728567816
Rh 12.060236171495163 8.688044556088016 13.059959604494011
Rh 14.052339508635914 12.637870642293663 11.14341440312616
Rh 12.554406251605135 9.91118119120257 7.562285576669168
Rh 12.52653506192942 11.448933135570352 9.540054721006019
Rh 11.127672567028938 9.592096066813086 10.669640935475487
Rh 11.73319915272398 13.147448575743336 11.519187576738057
Rh 11.241249440972087 8.117243824724317 8.732827581381082
Rh 10.028809856763672 6.260740138917677 9.85366147431376
Rh 9.86493885392585 7.814927249519236 11.877342363374947
Rh 11.190532937610884 11.095746388727664 12.605096449815514
Rh 9.612869040266549 9.556511292604219 13.70935607132083
Rh 11.287118581291855 12.15688817380731 7.366120712842072
Rh 9.179099008255216 10.788764685287479 9.817652174700145
Rh 6.17509499654159 11.194603040047992 11.050977785201818
Rh 7.7772523707314205 7.288093831330653 10.449311336197512
Rh 8.769296026060504 11.759981430714161 12.286947273908455
Rh 10.317689066781 12.968356564516917 9.465417826945027
Rh 10.004287143554969 9.998592188051738 7.5519470318261295
Rh 9.42159989814974 14.04167581007002 11.533202688117315
Rh 8.576040821219907 12.193584767160843 7.68322557535747
Rh 8.762262106344659 7.850504117978075 8.180045275622382
Rh 7.969533334974339 9.497504670463723 11.721514930451752
Rh 7.70182706314658 12.890001235633555 10.035820096084835
Rh 7.084065963977336 9.499453545274084 9.311186794346582
Rh 7.602402062130953 9.94774939137966 6.9125292262360905
Rh 6.163653697177783 11.657288854286275 8.435174948844164
