30
Energy = -171.02183131 eV
Rh 12.214363472130836 11.434338328871236 8.36584501178213
Rh 7.829978375532219 11.543778331269316 7.779269666048734
Rh 8.995334006221285 13.507910280545913 8.708948472705847
Rh 12.188804677506145 6.908302915522384 8.591128821147354
Rh 14.765004920835004 11.083077573072527 8.57662532724814
Rh 13.405565477625128 9.03271395444174 8.591648598640893
Rh 9.888977896516723 10.797691211326399 8.839042472074885
Rh 10.433115555350069 8.459977506952406 9.15409123967302
Rh 11.150196836270785 13.220660096065558 9.877497519900265
Rh 8.399951817891585 15.197120994185594 10.236807194406254
Rh 13.461184505772351 12.07541963645478 10.505911032852989
Rh 12.05443526384471 10.031237323938791 10.503952482286286
Rh 7.985800225466421 11.856611599507149 10.272669694244168
Rh 12.70985218311017 6.645343881252004 10.899723180018741
Rh 8.731042568425467 9.424632075510155 10.897560872233607
Rh 14.18739758473971 8.591402923296094 10.865732326945162
Rh 15.497539611867547 10.557963222045107 10.955742170592503
Rh 10.175137893265726 11.574069477269525 11.490026005852364
Rh 10.488449762184455 15.050403410322591 11.413189539553285
Rh 10.862833804110162 8.056903735298805 11.590869436566642
Rh 7.430525498587493 13.581192645657671 11.806711691545983
Rh 6.930118498882677 10.904928524562854 12.258078284223696
Rh 12.12229649984834 13.191752944341825 12.325340247418774
Rh 14.001913763902794 11.403627122643623 12.869849572764457
Rh 12.770089744543155 9.201997189940577 12.820501573595074
Rh 9.447431120977084 13.457604927012206 12.948537423112587
Rh 9.018034541104136 10.331156123859511 13.302739661671383
Rh 11.60171847670124 11.180738735195776 13.730338573379816
Rh 10.584772049400046 8.634201553680905 13.992305761307476
Rh 9.736182006015111 12.131290394585788 14.897364784835847
