36
Energy = -205.42696818 eV
Rh 8.10892291320194 11.573407205403974 15.759960244616568
Rh 10.889188580870691 13.295849740323908 12.80159735104199
Rh 7.0428330164706745 10.020451171604888 11.034924823688195
Rh 8.583379507888983 8.106110608860758 10.399150208824368
Rh 9.085713371992853 11.223557499373085 11.881401282908568
Rh 7.860602671514358 11.159608356117326 6.702578035152399
Rh 12.957981530727231 10.573170300764822 10.114858285452671
Rh 10.104051787866547 10.233491003024508 6.902365473637182
Rh 10.480571806054602 9.845940414720038 10.070370873716605
Rh 10.447971567583291 11.508134071653007 14.625636331435267
Rh 13.222864343777912 12.88406839519332 11.709744644712561
Rh 11.512928402753161 9.243217057958189 14.413679321009857
Rh 13.829066018530632 9.85258515441915 14.81977925763839
Rh 15.353275881448905 12.518824439225693 13.031103846367222
Rh 15.212122286241772 11.74870919047949 10.455040048936633
Rh 9.94347239786637 8.089868383830199 8.291722395585616
Rh 7.438552908380497 8.310303080136032 12.881571210999441
Rh 9.346378275926382 12.315004340324094 8.288498681440851
Rh 8.57522804794001 12.99620407612492 13.718071695420406
Rh 14.279097824796276 11.11856849007134 8.062625965482004
Rh 9.846257247503633 8.799428613245766 12.453199662576269
Rh 8.971891048587668 9.396371958523309 14.76420662422974
Rh 10.845132427301689 12.406916104325903 10.41246950835896
Rh 11.056012638376556 14.14066198339699 8.524050478715495
Rh 16.057787862939364 10.398403507134862 13.971301945874732
Rh 7.2689141567001005 10.80307242705558 13.487541284288573
Rh 11.188750282557468 8.149814687474384 6.173663773324396
Rh 11.815485021630751 14.739502220264727 10.889529475456287
Rh 11.817837358566809 11.77736602204876 8.00157671828963
Rh 12.302392003584977 9.296806418714585 8.055238985050957
Rh 12.93078843133299 12.032053788555615 14.114496036878107
Rh 11.616200109163357 10.640213092164029 12.304623512827321
Rh 14.137229018926126 10.34396602044693 12.335617220674067
Rh 8.146887718000553 10.030482586476703 8.825097408412905
Rh 13.033117990336569 15.662344451593215 8.943813029681007
Rh 13.537833586738612 13.271484076903441 9.216529934090026
