32
Energy = -185.46521723 eV
Rh 15.278623127442588 11.647848673150023 12.611410779231358
Rh 9.675196468511954 9.464843535774435 12.526676665757291
Rh 6.525978078596557 12.544833847665632 8.471126244076617
Rh 9.19331859675276 14.38192824821199 11.518535135046976
Rh 12.097628821252666 6.651514158141639 9.690001310519085
Rh 9.110501321013684 11.953522969895486 12.323115076588797
Rh 11.175298225083456 13.559597060665771 10.134656632327072
Rh 13.25355581385898 12.50544856715178 13.919418971602871
Rh 11.210544359458341 13.346407501578328 12.726233461377236
Rh 9.622612730757426 11.518479703947927 9.838552425195488
Rh 11.099306012110336 10.99558852917772 14.017231755889542
Rh 12.49045960229413 11.564385222617881 9.165955801646252
Rh 8.566888454952158 11.34898165961817 7.460924689994623
Rh 9.49620774941181 6.628708449398339 9.248609366259819
Rh 11.099151552956634 7.740319926025975 7.551117366405257
Rh 12.967277064151725 8.971824370553803 8.954292199049988
Rh 12.542585651936951 8.485341440567359 11.460117749515229
Rh 10.39105038850227 7.1067834905357055 11.640598229219956
Rh 11.525570493924098 8.375193641889798 13.782366859714422
Rh 7.274464833255855 10.28498145613912 12.063552418898686
Rh 8.788452981681552 8.844731762124225 8.114081254541725
Rh 10.91296138410099 10.251882640302483 7.616527970702851
Rh 7.402307704791883 10.459140059280617 9.581683013476345
Rh 13.37413056830184 12.824955423134062 11.386369282465521
Rh 10.55828675317957 9.038312133302044 9.903272957866955
Rh 14.116074297884387 10.407858258182674 10.734682201088932
Rh 10.750218796740898 12.793746288379639 7.706939911382225
Rh 8.689633667941642 13.72377591753804 9.067621804952186
Rh 13.41187593880941 10.058433917130257 13.254236404880917
Rh 11.572923833394826 11.00254491589029 11.51818646227024
Rh 8.21658370715498 8.319355789089153 10.667762337490608
Rh 7.181179447593047 12.7695788707397 10.914991688364806
