36
Energy = -210.75662537 eV
Rh 8.80906410573658 12.083606432921252 4.763293117663864
Rh 8.376534734761163 8.767958048696022 6.208633186072232
Rh 7.0910456118784415 10.937409692412384 5.981183826602025
Rh 10.895445816440532 7.945726243657995 5.503360033831689
Rh 10.344877017014394 10.36423442785176 5.5119218057595685
Rh 9.725102754669013 7.005317258273233 7.554813612438886
Rh 10.092455085014898 12.584928860302018 6.840407442467348
Rh 5.959787383934526 9.061142528718648 7.400406345400225
Rh 7.151182199127772 6.712428440771663 7.498516577678584
Rh 12.518647463992874 9.564934338049982 6.7220990756314105
Rh 8.324713699651333 11.42889630703567 8.019058613317798
Rh 5.8331305109014755 11.489260015763941 8.189218284552878
Rh 10.278869422790603 9.672277693306864 7.956586219801215
Rh 10.944618015680664 5.173482536538733 8.926651987356419
Rh 11.811648497827871 11.536390595546814 8.421211518539556
Rh 12.204162838172277 7.195060789114266 7.704796814989799
Rh 7.963881741078965 8.792461582374049 8.77451986841799
Rh 9.89136866603927 12.806301161065393 9.52486457327154
Rh 11.465950757217412 11.004538869001605 10.95483608555061
Rh 12.567404143433615 6.710558890665962 10.184055959813868
Rh 12.359052680179433 9.170514410486307 9.381510110443736
Rh 7.264604615382891 12.153339626669409 10.199993678724107
Rh 6.000223524850995 9.780680282967031 10.025962149471479
Rh 10.179164146109096 7.950246861660948 9.932695692937012
Rh 8.109282397878838 8.41986049770961 11.490645619864013
Rh 6.3227642447116885 7.161040896044552 10.027170543008147
Rh 9.233739818141455 10.454954219602117 10.279943077037053
Rh 10.390299540671863 5.934106085498144 11.380163325358096
Rh 8.548934541906549 5.970210267007712 9.576674021730149
Rh 7.15898932749101 10.627585757876233 12.256832249964267
Rh 11.54323895485549 8.511246606692852 11.859026160687113
Rh 9.106569799868387 12.345074845106332 12.00533600162532
Rh 9.675045436162065 9.9998709829155 12.814800539404317
Rh 9.626977898711173 7.487368002172538 13.27263031601793
Rh 5.704420894732393 8.51843834513464 12.17670606931708
Rh 7.860847029681313 6.012592917086315 12.013520811949897
