31
Energy = -178.04288172 eV
Rh 10.57278883344771 5.904997269823687 8.359211797760192
Rh 9.897756657038881 6.885605159726771 11.11874774747772
Rh 7.800426145208238 6.335513013064657 7.692259169859079
Rh 12.01004037314783 7.401725808395404 12.461628251662273
Rh 12.283325537262463 6.459112324874099 10.054180902348035
Rh 9.774105993548407 7.313968669172788 6.317057488889457
Rh 7.655686859185241 8.69374388158236 6.738692726870806
Rh 9.335674181982304 8.004659653453452 8.820459370294486
Rh 8.33938574182132 8.993781305380145 10.963426027349353
Rh 11.65955176653893 8.25313838282513 7.757934796371457
Rh 12.304771069358328 9.953204076288191 12.645155931833715
Rh 6.7677284120870755 8.26637017741949 9.168962870867722
Rh 11.43088562322953 8.78014615882397 10.30441196260265
Rh 9.917757934401823 8.984741438074558 12.865336571721908
Rh 13.839448424453318 8.623173799569155 11.094203182734283
Rh 10.460167110263882 11.355695700878954 13.761995799040605
Rh 10.305620675506912 10.913078779861097 11.114652085745533
Rh 5.889418932017357 10.226430599857775 7.811983940605244
Rh 8.170898824131136 11.125090469453708 12.415899090177659
Rh 8.410454303194363 10.38441110783438 8.69282964821862
Rh 12.900846627910523 10.951508681095373 10.304648210518113
Rh 6.56429111909894 10.752645742336291 10.368186157136467
Rh 11.125515191635456 10.675089365038943 8.592663205717773
Rh 9.90182582403972 9.956109854265273 6.571090457487385
Rh 12.17379169370851 12.488130847641102 12.201327868883235
Rh 7.666008033766529 11.216306375562219 6.225660491779398
Rh 9.75821264784053 13.310706524993131 12.181806604127747
Rh 8.463241673644303 12.572096251758008 10.201140580941875
Rh 6.8467338040185926 12.530550037294722 8.328583493420227
Rh 11.039557817494616 12.939312306749589 9.806966520922028
Rh 9.475134617474467 12.45939802887739 7.7418703242187314
