33
Energy = -188.69640707 eV
Rh 9.028699504858592 11.672332486617407 8.56676305802325
Rh 9.867466847242051 11.395303586631389 14.091447627049208
Rh 8.839051236987691 14.793775188701854 12.944903999685309
Rh 10.43033384104753 11.950148534412062 6.5079997181651
Rh 12.229432938573252 9.808898665088758 16.410137126227553
Rh 8.493097734345035 9.994217390380566 12.468453579435133
Rh 9.928359171798142 10.58917430478316 16.431901683513995
Rh 8.867961510528152 12.486628259045322 12.031492093999317
Rh 7.524159338834647 11.176340542278824 10.38921050743134
Rh 14.862525705521316 12.359816371803939 12.068528544228842
Rh 10.633041463735221 8.987439516930307 14.532218479989838
Rh 14.243772986026801 14.192860495188476 8.186125186368768
Rh 10.998695669993197 10.053989467761145 12.190589562451544
Rh 12.47421604776781 12.446819715864402 12.260344624533898
Rh 11.795977022790135 8.380041385629573 10.48912460650352
Rh 12.495762657254158 13.827114670827251 10.039317964048363
Rh 10.346054886550252 7.627312015869236 8.72527124418893
Rh 12.329927174411864 10.447891515488626 9.066103545298038
Rh 10.34768991987316 13.75153125304312 8.606630670026197
Rh 9.457374268717707 9.524970513604691 10.168916137977014
Rh 10.444815055651311 9.795629610709632 7.6959159916177695
Rh 10.279301268196132 14.44119448680312 11.019431791138887
Rh 12.419673290898526 12.605932827911916 7.702583321542879
Rh 14.922443277426213 14.249077291465435 10.600498957265
Rh 15.021038197993423 10.321545131506852 13.430808561829899
Rh 10.89195819532711 13.609652602245404 13.588499496438313
Rh 12.655713589092281 8.22810211824905 12.897318057206093
Rh 13.513582820469722 10.152795658402326 11.359199592577411
Rh 12.659131465144274 10.509196535346485 14.088011382444796
Rh 14.01771283473285 12.54425761110951 14.476426126899709
Rh 11.72105867402609 12.277590626214263 15.619101063285013
Rh 10.78073874515426 11.823675822209532 10.398555554858106
Rh 14.261761786182017 11.998804835839083 9.508460065776648
