39
Energy = -228.37852507 eV
Rh 6.7414487977109365 12.094286747406853 7.715408989975657
Rh 7.068019006065563 9.875260489980459 8.97838738933321
Rh 8.178057796665696 10.157928562068001 6.696563691175399
Rh 8.976931038676241 12.666166613310063 6.548938411473384
Rh 6.677586482514233 12.151693972152424 10.313779311966002
Rh 6.233857800832002 9.88348108932618 11.540124363192207
Rh 8.337198845759131 13.691135047995473 8.935109237806737
Rh 9.174711154682441 11.345994454018081 8.775990058092132
Rh 7.941472847409447 8.279932850154982 10.685937211154323
Rh 10.820480026151444 10.73974912606137 6.943564431468193
Rh 9.528096062119516 8.814101040143342 8.629714995372213
Rh 7.172204240089485 11.826309699495324 12.925246838755902
Rh 8.687940388330697 10.821810841609429 11.133311572713328
Rh 10.90360942073708 13.186983078575311 8.109155295003813
Rh 8.606165750947662 13.412928572765356 11.537340800059992
Rh 8.478652420065965 9.352976805409208 13.112345406274445
Rh 11.950344985127135 7.6996833681323 9.30073214287224
Rh 11.524242486786825 10.298739350540277 9.38505745780404
Rh 10.318167357522173 8.337171091496485 11.129098980000865
Rh 13.075930821678673 11.753602168692845 7.93025122773636
Rh 13.877640096138173 9.349305943296676 8.696862754421955
Rh 12.330153207255254 6.966859302502429 11.886700242687084
Rh 13.000758973887839 9.278901461034458 11.172823788568554
Rh 14.32965383559581 7.2091618514495215 10.162300036484853
Rh 10.305744203656712 7.551612886484382 13.524660579969648
Rh 11.046355588189009 10.494730153590337 12.24808914276554
Rh 10.24574197970912 14.869743910110682 10.158829804521474
Rh 10.790180054787713 12.456481645665265 10.575447399923558
Rh 9.655526284938095 12.022991287746592 13.6400215838796
Rh 14.064529050802141 11.43788633387777 10.28529400878678
Rh 14.667839668677615 7.956771262729165 12.642322236154468
Rh 12.855970054570879 13.61201212643455 9.737319337882782
Rh 10.359674347854616 9.777938703175762 14.7745776914463
Rh 15.604538784411407 9.476160867754276 10.748825961797582
Rh 12.52173692686975 8.872511668552285 13.7116604388652
Rh 14.324035328666309 10.629312467648013 12.83832673787362
Rh 10.891443761426856 14.02643269966199 12.626562650235378
Rh 12.217333368901445 11.457501448504336 14.353585913785038
Rh 12.812489205178078 12.539447448151085 12.182662396748713
