32
Energy = -185.2093452 eV
Rh 11.845742864242649 7.1783907778673735 9.285033354789954
Rh 9.40512650152472 7.273918032476305 9.876005715610717
Rh 13.637893085129145 7.77320101262219 11.120234875131885
Rh 9.064875270157366 8.609683378005656 7.616890978098383
Rh 11.160233093642638 8.238402139369123 11.57777308305171
Rh 12.935539715103985 9.201311622189355 13.212820841744112
Rh 11.615052671995967 8.74983282701147 7.255650729967798
Rh 7.913132823736267 9.341784656946384 9.756995728081277
Rh 8.687692132920795 8.688265557383492 12.091309328018202
Rh 10.506749268391003 9.97229448484291 13.477811575652215
Rh 13.166546829335738 9.427237783719573 9.254799388505933
Rh 6.350095436121183 9.799508684842964 11.857380626744476
Rh 10.515720963703776 9.667262515153888 9.472754556537122
Rh 14.570546647858283 10.105553425865233 11.30011769208916
Rh 7.626219613513186 10.867342398975222 7.7969220270976844
Rh 8.013484502423655 10.672684258576727 13.570672739740397
Rh 12.060728710755638 10.65977839544613 11.269275099226906
Rh 15.344004435535265 12.463112572657932 11.510455447851475
Rh 10.184702970985386 10.938652609465814 7.295993419872246
Rh 12.840610151905464 10.999929996634839 7.283347619526619
Rh 9.38161014570359 11.124360936081704 11.366762782135666
Rh 7.087392253883925 11.67628291176236 10.366693379000518
Rh 11.637875115217911 12.1341397861112 9.200918117215963
Rh 6.432696260218066 12.416457207072478 12.624982062120939
Rh 14.182962794620668 11.827441379793163 9.345120151569473
Rh 13.613052343861051 11.642916016230284 13.249362871046465
Rh 11.212419497117573 12.336065562998826 13.113391371956467
Rh 9.09071695892249 12.490598600487916 8.996999673981588
Rh 8.81846348228122 13.139522257157882 12.930056688899464
Rh 12.910092924743187 13.097281342865632 11.212426820023145
Rh 10.372378897578326 13.55371694732712 10.927703524698993
Rh 7.851838233853016 14.012003919822725 10.763559465649509
