32
Energy = -185.23331032 eV
Rh 12.806794824323301 13.524490881552351 10.511829110119754
Rh 13.128451433545962 11.143625570411565 11.658475407389869
Rh 9.13138985059493 12.990458322904813 7.359532891446337
Rh 12.776064962854823 10.989142245310273 14.25776445943975
Rh 13.06163745185084 13.54319630892435 7.979963205062612
Rh 12.763975079865869 13.238858585031519 13.061322943318137
Rh 13.298456502570087 11.242809281853349 9.076765512331374
Rh 11.150662841077935 14.071104280024256 6.377845343023235
Rh 10.950975516919504 11.760705632138386 10.021531905955202
Rh 13.479474576245268 6.725397813117396 11.560019851891571
Rh 10.719156485504232 11.589742537829098 12.67072045361197
Rh 11.34105672164429 11.720607893996227 7.432731859931722
Rh 10.783204691007239 14.129776447333786 8.934530118793433
Rh 11.435766399936242 9.462834774237933 8.644569733612155
Rh 8.622167578594174 12.907586299965223 9.858778859532364
Rh 13.454970104479393 8.966883978313335 10.271959629643561
Rh 11.542627597068652 7.146418907040928 10.02674962695872
Rh 13.153575273086137 8.8451333110463 12.892894913086641
Rh 10.332328654168036 14.006943138486957 11.402244943193734
Rh 9.441690319855391 6.25627431985123 11.078530638291834
Rh 11.128399996083735 9.336069257357273 11.342085640594581
Rh 12.084108428015789 15.46169976139569 12.277043985011426
Rh 9.140006138202992 10.696914169499703 8.541110124809634
Rh 10.455656366287947 13.81254852303182 13.988064148179927
Rh 11.22031019483017 7.09041690989338 12.66496958058348
Rh 9.27680427619159 8.459526388216279 9.78094178808504
Rh 8.736275004508721 10.635291822573551 11.141244514200988
Rh 8.951404969567685 8.372282845190977 12.403655274724526
Rh 8.400088079608707 12.84406933248832 12.511030140115965
Rh 10.443567755750145 11.618265128399841 15.241960553963969
Rh 8.570655395656956 10.573361519400224 13.741027848447638
Rh 10.804047320526632 9.26549966625586 14.034642975214487
