33
Energy = -191.24032168 eV
Rh 12.54198068662674 7.667088800253439 12.31919114159037
Rh 14.43631477829956 8.37797098709205 10.576406389358189
Rh 14.836984741812465 10.906181609188385 10.042537784250785
Rh 13.055022737889367 10.172114729936627 11.739759365355113
Rh 11.042330002507745 9.482965807567778 13.344245268071738
Rh 11.657457730398498 11.944835169193313 12.95016545682997
Rh 13.411896696434523 12.740537027335444 11.167879451211249
Rh 9.334440559889963 11.054756024657559 12.160758526295146
Rh 12.332425621631595 7.191196537746917 9.762845561951744
Rh 10.389286186067745 6.586312383997935 11.51585600893005
Rh 12.781960611298665 9.684670549783256 9.088089506535475
Rh 10.809776634154519 9.071498856549447 10.824294188709457
Rh 8.749298950225688 8.548840345392096 12.373195463302682
Rh 11.533679083966822 14.281166917306336 10.72573780626797
Rh 9.978839692215557 13.735715999772626 12.51808305775364
Rh 10.25508526032797 5.978748969136647 8.935093563477086
Rh 8.563891094276993 7.249391951725259 7.3543457878931005
Rh 11.232532719415254 11.626329905948344 10.32454270199568
Rh 13.127758104580717 12.193169313255188 8.607578132330813
Rh 8.684336224346167 7.663608719761206 9.88947768316378
Rh 7.582593848017388 13.013985561229067 12.475237251742257
Rh 8.944339506761327 12.927255030780547 10.237422959167153
Rh 10.663367121122826 8.472534525051753 8.249116658794257
Rh 6.985925306650102 10.39588268316809 12.927484376367675
Rh 10.8615144230503 13.47955818833839 8.448614838902104
Rh 8.856460663121663 10.278236423106792 9.458528467167715
Rh 10.983589927943875 10.994282415757935 7.760033687555682
Rh 6.939927151388563 8.994811698879607 8.260325307158151
Rh 6.877889276443327 11.487154206413308 10.65796874964233
Rh 8.688758253555578 12.20514108161839 7.723252948110437
Rh 6.764748470355646 8.982126692055077 10.811761245137896
Rh 8.94419020038159 9.738798586519316 6.841306772561154
Rh 6.439605709167608 11.415636995534436 8.305034127552927
