32
Energy = -184.26803708 eV
Rh 14.360577177472887 12.655949550201186 12.624639776021844
Rh 15.359879166706591 12.392894850266304 10.269192334427695
Rh 14.137278988097986 10.37104763804648 11.351624419819037
Rh 13.675684093304934 14.449132340823395 10.846692200331587
Rh 12.108540592567968 9.087408414202333 12.262058330114577
Rh 12.44918085907795 12.142101268317893 11.007726220755485
Rh 14.164788187831018 10.526526860378205 8.797025430413765
Rh 11.60316823614538 6.720425134748853 12.680299101250304
Rh 13.36635407478987 12.90321860614346 8.81621939825691
Rh 12.358511901436634 11.330930150701729 13.450729958744956
Rh 12.866399901150047 8.648535814015794 9.9098059265151
Rh 11.746958341537484 6.529090323895806 10.294259022664988
Rh 12.140174460957079 13.974074167054999 12.904534710385116
Rh 10.934318374872314 14.120419289924262 10.583368407304453
Rh 10.548216473387711 14.293836248338467 14.637024636825242
Rh 11.050343138302052 9.336052748159796 14.507613482832435
Rh 12.33309142666007 14.768373306428224 7.645735860759779
Rh 10.474554714649095 11.87806627200388 14.90262302802561
Rh 11.653519518548773 10.717611608265218 9.058146892426333
Rh 10.401767138302944 10.791370662723224 11.391518588313076
Rh 10.758137314450547 13.025357078663523 8.302433216691343
Rh 10.26873497199003 8.528551087012822 10.17943875923705
Rh 8.981956159081324 12.583967023483815 10.147918839568154
Rh 9.580767264144997 8.04179622553898 12.622299562871877
Rh 12.19531948738021 15.999274518203004 9.663322954821352
Rh 9.059778463486605 10.462740680158962 13.47543469098016
Rh 9.712041039373199 12.971584643866407 12.59996677706835
Rh 9.364116762191506 10.842034572280435 8.237158147533057
Rh 8.209001448230135 10.093220281823722 10.296138991604764
Rh 8.02169476476095 7.496963541424723 10.671547111933261
Rh 7.294218376066306 9.135056086423159 12.392988758121923
Rh 7.431257796171846 11.79271961960856 12.080845076509005
