39
Energy = -228.72378875 eV
Rh 10.572343480859164 10.683918721208292 7.242175994669897
Rh 8.241956772393026 13.985585322217606 9.173684742674505
Rh 12.318882199412789 9.75354497086855 5.601459965942978
Rh 8.801135762437394 11.549802509467614 8.82780722188121
Rh 8.540024830254326 13.531315251140665 11.758054850758397
Rh 12.16381162443273 12.313908165139635 6.136011246994098
Rh 5.362082863516272 10.4896074249454 11.303816743369563
Rh 7.539540523520695 9.674050951238288 10.193013717520127
Rh 9.852372260665078 9.19274285792608 9.281831963517924
Rh 10.228142362765327 13.20673699878921 7.541408174049858
Rh 11.809353087886123 8.497498559310587 7.7336107166375845
Rh 10.520494701860972 13.378660637095575 10.113740739806476
Rh 6.804560515521888 12.223925795659824 10.270286715869684
Rh 11.580200227422832 10.991026063941941 9.708062033376489
Rh 13.286273712478268 10.664503787926998 7.744867561345424
Rh 9.513170163712287 11.178340799875501 11.289027174201774
Rh 7.335363662693171 11.352874019323835 12.644705011337049
Rh 6.942801855099784 8.811409583612432 12.46515126088085
Rh 12.5936016238984 13.088833614195043 8.560878277194659
Rh 12.950799765923778 13.827556705181763 10.94434647781303
Rh 13.32613665625113 9.098844352125253 9.726495252235953
Rh 11.390194787627138 7.278530930983555 10.00904605232005
Rh 11.346684013212942 9.254375121849424 11.743400526528752
Rh 9.195353410788597 9.587040376301927 13.2826248754204
Rh 10.91858289692945 14.086257644577815 12.58411711110826
Rh 9.518154741878844 12.209872472684687 13.743577826850618
Rh 14.069505907353662 11.588032813106796 10.122867960447508
Rh 9.1060468977884 7.908298219385866 11.369729360313324
Rh 13.368932671852647 7.405607643296083 11.668383026825646
Rh 11.968773468280911 11.787246517348622 12.209057971054637
Rh 11.050202042341772 6.851892273600936 12.624910767561296
Rh 13.314919202214611 14.602984509449445 13.360741012958018
Rh 11.266752317496547 10.407534783358095 14.296033267920166
Rh 13.871219567837702 9.946101141312788 12.112398258922175
Rh 12.00477696242889 12.805815997370805 14.592377337561073
Rh 12.752071391021753 8.437654219963004 13.89255125566839
Rh 14.400401515050328 12.399157554335922 12.630692786035647
Rh 13.734079290394032 10.827501558304677 14.581827167575359
Rh 14.53967582343672 13.173197036334603 15.046313650121384
