33
Energy = -190.05696521 eV
Rh 10.736565904037844 8.634410226981997 6.593973570762187
Rh 12.779080978420822 8.280051661087219 8.565626338671104
Rh 12.033501273007596 10.556875615292455 7.391345161246302
Rh 13.750252541942395 10.840692491045251 9.418348346386866
Rh 14.522786380988302 8.689631886150583 10.39042145929885
Rh 13.03047236897132 12.749558777176413 7.912156378334569
Rh 9.151420762043706 10.915168684649778 7.61531454228399
Rh 10.235778468700646 6.708686721814228 8.240942803371915
Rh 8.327464984175922 8.426819184630485 7.7589659822604276
Rh 11.25806377535656 7.113588617093535 10.583197584041653
Rh 13.100938808443816 7.529464077584975 12.194452439457109
Rh 10.46619117622719 9.187827101198982 9.02076059900394
Rh 12.176898838318676 9.450882928602143 10.809492664996434
Rh 13.320987238913077 11.308388628277205 12.204653611689437
Rh 10.955353040063702 11.954698942614394 9.217123577354094
Rh 12.883851599097751 13.073185755397198 10.398219155230613
Rh 8.68236750737691 7.497286316199369 10.132725961937313
Rh 8.491661527746484 10.272597066500106 10.075983054669486
Rh 6.729592938382377 11.716345887099518 7.699360650486211
Rh 12.260093866068292 13.56918488864954 12.740087655843519
Rh 6.33802007482478 9.533612854279763 8.78220776999447
Rh 9.790036928506499 8.885383125387227 11.90960058933334
Rh 10.741281509142151 11.46527061151639 11.748638409829189
Rh 8.465333442647829 12.737593948824157 9.325702278348025
Rh 11.852128939804667 9.391555703122203 13.313733493262308
Rh 6.494867528561248 8.207141469444542 10.864712177199394
Rh 11.803519628608502 11.683619451012635 14.41422636639207
Rh 7.3964432525509345 9.995971386299457 12.299231758366135
Rh 10.277754255162083 13.788436376964539 10.895407383920311
Rh 6.390479940193616 11.6474097867627 10.321743465692867
Rh 9.508371307470615 10.610970343252118 13.762508281562067
Rh 8.278863886497199 12.326382196658932 11.912757589086775
Rh 9.888614951607227 13.233710026869327 13.539230142903987
