31
Energy = -178.8613631 eV
Rh 9.710667371343337 11.363222237126042 5.965038741035612
Rh 9.02149475851831 9.159420762625126 6.990312533586174
Rh 11.405640808344879 9.202565772095996 6.273477912025593
Rh 10.664623645571345 7.846623378559366 8.53114180560816
Rh 7.920866946140555 11.240157296758325 7.900738496250481
Rh 8.336101598476336 8.960444207368239 9.416704301601788
Rh 11.94760486616076 11.552628947058114 7.262147564543935
Rh 8.455360482474545 11.31868398923539 10.450101041890825
Rh 10.372653864110601 10.365563804475217 8.829846677000445
Rh 13.946703502008953 11.41194800787317 8.981156485379886
Rh 7.589676882189206 13.437496496807114 9.137936323325462
Rh 12.818217416648972 9.294441269149576 8.313281172906343
Rh 9.770878528735933 7.50881148626792 10.933462545398413
Rh 8.027048712343145 9.198950464114759 11.971663412773005
Rh 9.886103106179085 12.837049013738811 8.100385534460683
Rh 7.400940016385145 13.324563784877775 11.69759506392286
Rh 9.72791159075914 13.56684405742547 10.594563198652647
Rh 11.746686242774741 12.281378224208593 9.813409818054343
Rh 10.490776370122543 9.917793261216062 11.58745585376221
Rh 12.254412048446925 8.172285344832298 10.554187929406968
Rh 8.611004609869953 11.504152800090225 13.011046629395636
Rh 14.586737165982754 9.085549684330653 10.070226125452146
Rh 8.910167714156815 7.195429560608417 13.285490400288815
Rh 13.048559178669459 10.713735340604199 11.316044574943904
Rh 11.345623555613084 7.814857037360224 12.985426648556533
Rh 9.416206691271372 13.908177352267964 13.186956838486784
Rh 9.649183802912736 9.469038197955948 14.085628342818314
Rh 11.166307135941166 12.302356306085299 12.302203921669374
Rh 13.756755745032478 8.587784766136728 12.557860170498921
Rh 12.133475289895332 10.232567648173625 13.647970739088722
Rh 10.4533336343653 11.844240351071845 14.703528850751932
