31
Energy = -176.77953247 eV
Rh 7.77968883882487 10.398346028066419 11.906861563779689
Rh 11.41310381961858 10.662224018241771 14.44296387154809
Rh 9.276795882487832 7.364845378957211 8.267417697933416
Rh 8.83465090858199 12.244378479388862 10.137221889267748
Rh 12.729811432157764 11.943929454423413 10.558642867596117
Rh 12.721996423226903 7.73352266555047 11.789199857608418
Rh 8.978756145685958 10.13946946583104 14.184499763592196
Rh 13.002028203358405 14.429804601058445 11.182754057200471
Rh 10.858068646149544 13.261225420167671 8.909643470946875
Rh 10.713873003334857 9.117817291924007 12.535383637268767
Rh 13.011552830955132 9.384520947831584 9.928897668174377
Rh 13.011265494208663 10.182600168056666 12.419127664241005
Rh 9.946915903154466 11.542872467181695 12.354906017245662
Rh 13.463224769337133 10.04475125305148 7.597252556420325
Rh 11.388662110085999 8.652716962425783 7.968783756769367
Rh 13.792552876166752 11.277649133382592 14.492456058074959
Rh 10.694687702159738 7.762692110286043 10.278410626061275
Rh 13.2530535995578 12.423882714905247 8.288986068348683
Rh 8.977585140160214 9.886699636678674 8.162450137942171
Rh 12.780324114079404 14.778555216761616 8.819162567773535
Rh 11.199529359256902 11.15821124725734 7.465774932428669
Rh 8.387908535231176 8.095044037020417 12.744468245322699
Rh 6.9195873204542915 10.550499360803357 9.474783753057997
Rh 10.654891142903034 13.699090130768582 11.389026020568432
Rh 6.90972511763851 8.450985423943573 8.16243730200098
Rh 6.551313759435996 12.339056359309042 11.108337293262728
Rh 10.714817966270408 10.451477060955108 9.968614309145353
Rh 8.212510255818778 8.360894791837593 10.315506985570241
Rh 12.34451952887776 12.572976481113896 12.944821348207864
Rh 10.413631778330558 6.627012962443433 12.434081595171618
Rh 8.906480062890537 12.30576140077558 7.6106390878692975
