31
Energy = -178.49280931 eV
Rh 11.12537575520802 7.880812234221508 12.464507028048324
Rh 9.420857652832465 9.368403771133682 13.688653956429247
Rh 12.396658978630615 6.517008682914141 10.697405262231603
Rh 8.623375525712309 7.103899643363587 12.958762194786084
Rh 11.31904497376457 10.428049724796045 12.271916587730226
Rh 9.856471955023752 6.526370538153897 10.653318338061702
Rh 11.22144731523369 6.762521660216031 8.470697597776141
Rh 12.435077561646454 9.08014166870564 10.48042067607766
Rh 9.40404120007724 9.03117738869967 10.982038662007778
Rh 13.629672721740503 7.631806870512202 8.75718575966435
Rh 8.981598885716899 11.420604301066716 12.281030501627539
Rh 7.185476100472245 9.536656179240751 12.194435853241986
Rh 7.4025941266203175 7.284148301451314 10.755022120093548
Rh 10.726804177875584 9.188598776155688 8.715885233890036
Rh 12.207679199163048 11.685320225532564 10.27976600757312
Rh 8.649353363825531 7.671726318341468 8.592576155187706
Rh 12.470035826181013 8.066764330292129 6.5476894938399255
Rh 10.97890187475247 12.957839480848474 12.190775002090566
Rh 12.991712942765487 10.147450222197392 8.216295284493642
Rh 9.909190345830854 7.935258220128506 6.487548916579855
Rh 7.1196440197489395 9.477148265535783 9.562550326507825
Rh 9.053309284488273 11.227303314265193 9.681150255360105
Rh 8.459344739496125 13.785218822242228 11.741431922860064
Rh 11.023543351125005 11.763284314728141 8.094964567478497
Rh 11.066014587327228 10.16766234458847 6.213904605303162
Rh 6.895201422964334 11.822116938134311 10.871552380792275
Rh 8.630040964355512 10.097878759422668 7.344995998174596
Rh 10.090048647134758 13.42581559154244 9.859846222031209
Rh 6.7037932366822615 11.605245359831358 8.30253346171822
Rh 8.805897987223487 12.770977200842735 7.556294072388262
Rh 7.462162776119444 13.87925234421636 9.379452542816301
