39
Energy = -229.2990975 eV
Rh 12.01803170157652 14.575708931490851 10.012055879566883
Rh 10.264666495126509 12.46474037493725 13.249039487616473
Rh 14.337884599052162 14.07010493549318 10.789460785179939
Rh 9.90420036848262 14.437534491607057 11.407647042359018
Rh 12.788013264645096 11.922402481798153 13.906041384405146
Rh 13.11254388290529 11.898235251566312 11.436000573784462
Rh 13.66839043659589 13.664709951562756 8.295159219429099
Rh 7.705738430463885 13.651491328615244 10.018003305192545
Rh 8.374541163189244 11.019934022872624 14.290973288723436
Rh 9.766761852575083 12.090177439664227 10.582756475537831
Rh 14.507440915403903 11.504950092031175 9.404291206304269
Rh 11.174093166208564 10.408843752455162 12.062355748208647
Rh 7.163883674877752 9.885197137933503 12.307683154763973
Rh 13.04384831124881 9.346608556149478 13.645470688481911
Rh 7.857894760684456 12.397257105941145 12.226806641370253
Rh 11.39557294728497 7.529951614981311 13.618187161837152
Rh 10.847157568001354 10.366595945803365 14.669514156028686
Rh 9.692567195680878 14.770510412361899 8.869301454781018
Rh 9.342419083676411 8.918091521799404 13.216803329381767
Rh 7.647155881317601 7.347475398665601 11.9649356750464
Rh 12.167795075695441 14.020897000693548 12.476991039592445
Rh 15.088811904887129 10.840999255337278 13.767465254041408
Rh 10.109042241931082 7.1899204117637305 11.379378648931153
Rh 9.136144944757635 9.502422308814063 10.736846570890371
Rh 7.30493980297397 11.162904595989138 10.010412648896246
Rh 12.349929737808928 8.340064190754589 11.349190828205378
Rh 11.789482214531409 10.771434345798031 9.538793895967899
Rh 6.644463057780427 8.757378627959273 10.038556149224375
Rh 14.606107937552592 13.562414699715074 13.389148977404618
Rh 11.244857202995426 12.864499614027551 8.366910180138085
Rh 8.829162001040421 12.106859897122265 8.196804975885795
Rh 14.466818606781265 9.802032716941504 11.502887193662417
Rh 8.57636142709193 7.109669771513616 9.383726300016857
Rh 10.617798843757278 10.436905496946018 7.372182470097112
Rh 13.03415295991393 11.295694380716794 7.355973374194484
Rh 10.816067086647223 8.42432702090839 9.1307913254714
Rh 15.699249769372287 12.084022727755988 11.609435648527247
Rh 8.471301383156536 9.497225340375216 8.315097303988754
Rh 13.558537891494264 9.08363663830476 9.23075034603208
