36
Energy = -209.7809879 eV
Rh 6.926352557813972 9.672770113827383 12.1338196568484
Rh 6.658996161408263 8.711116582992299 9.637436862345897
Rh 8.693827583687908 7.9116603337975 13.274719531933222
Rh 7.497465064043697 6.9749617542967 11.216797539740096
Rh 7.545244496644554 12.278209775319791 12.217673852653803
Rh 9.141271509612128 10.473705988952412 13.134752106587603
Rh 7.133435731072672 11.082216457742451 9.898669500374128
Rh 10.18523057557354 12.834031441423749 13.054015996286061
Rh 9.048258400886368 9.087480182095861 10.89307178934785
Rh 10.10846782317997 6.753838832928753 11.294749444920361
Rh 11.066501522367256 8.66470554713009 12.703902693211178
Rh 8.775732134103672 7.44313954367691 8.914570389818502
Rh 9.284807221530901 12.327145575211913 10.384461179296904
Rh 8.427466491023003 12.416296830519768 8.015255854011146
Rh 12.780786655000998 7.428170702823119 11.27718866247043
Rh 11.247374770091401 7.701511968669561 9.276823844266792
Rh 8.095579549660107 9.80588789076395 7.784241503960535
Rh 7.0903872731873046 13.60560773356433 9.959522007618453
Rh 12.649490933083234 9.693588229585771 10.124752866550999
Rh 13.387590332030664 9.808286443034305 12.532967097190609
Rh 10.373081965244609 8.598465880863808 7.132108426910126
Rh 9.409986126365517 14.628706384391217 9.1995056433227
Rh 11.520899137356905 10.851107863307002 14.076171590689686
Rh 8.847435659824917 14.562439435208317 11.734909670933476
Rh 13.628824971479796 8.055412171574533 8.514087029047847
Rh 10.13140232007736 11.11433180015438 6.605047692656309
Rh 14.997369792611398 8.789086342388908 10.79637873231306
Rh 10.229194747703332 10.288169592557022 9.028809069754093
Rh 11.08665404080889 10.987941282608498 11.470385856785104
Rh 12.413067163170266 10.559008203901069 7.692619843249778
Rh 11.062485631700959 12.749795847377003 8.440359341564315
Rh 15.000103510998725 11.364769574361432 11.287540430217566
Rh 14.679151433718381 10.481056896563155 8.862517208993618
Rh 11.261397252851571 13.852409406221435 10.873874568805391
Rh 12.996200542710087 12.188066875387777 9.975305411410455
Rh 12.851029990144095 12.512666174381831 12.522626390595425
