34
Energy = -198.03043632 eV
Rh 7.614278587247874 6.255571396372118 10.518312418749783
Rh 9.984295561768697 5.990540584328576 9.628867433701322
Rh 9.523873466165954 7.221821655536887 12.01831070079003
Rh 8.914844684001931 7.382787139449258 7.43074460509022
Rh 7.349631538174405 8.55130368645188 11.746474059260343
Rh 6.495890719965944 8.095183854619236 9.163524230581205
Rh 7.10843059202106 10.430209792302687 10.043046577591758
Rh 9.103976861780644 9.324534118887199 13.76128100679831
Rh 8.96993015212202 8.342545508258686 9.666506772384272
Rh 11.721316976192474 7.4969848178763305 10.704736515453451
Rh 11.46713372961932 8.39387001546636 13.130247719930827
Rh 10.262931586776492 9.555811248670503 7.084020908809032
Rh 7.45260133288833 10.97001174161151 12.54477727592584
Rh 9.794350303308503 9.944743911433449 11.501302173427172
Rh 11.459007070348372 7.470311680516105 8.07646652666644
Rh 7.724626360878141 9.749665715152302 7.572384889392202
Rh 9.38945630027154 11.02221241328642 9.09256969142678
Rh 7.311571653822751 12.366486409843565 8.352611589017242
Rh 11.424993474218827 9.623004470516987 9.39349311280667
Rh 9.169120687899587 11.864822179127566 6.646033881454121
Rh 11.685729048881171 10.927895795699692 13.325690508828929
Rh 9.564303923973956 12.280517730203035 12.957593924031924
Rh 12.909739727571443 9.700620947361644 11.45655434289092
Rh 13.70590374352516 8.456198502688755 9.349178001683846
Rh 8.32362372948496 12.62015330032238 10.732565245145958
Rh 12.878535541296237 9.645631457181649 7.217661829664129
Rh 11.269063941802816 11.934527353702185 10.925011434566354
Rh 9.804031393427943 13.49472254076122 8.74548415575469
Rh 11.86000115384083 13.520635729796767 12.982752366936893
Rh 13.642098568441178 12.127361618577238 11.807943788998667
Rh 13.492970197031987 11.20556258740229 9.375698072367532
Rh 10.215318483297894 14.25970433404634 11.200473080058865
Rh 11.510535753341543 11.762166696285139 7.817860525284245
Rh 12.322572814500989 13.580483458416412 9.460673276068793
