38
Energy = -222.28754712 eV
Rh 11.035860869082011 7.198376092910031 5.564366721297905
Rh 7.563970603006586 10.514600832710757 5.62862124812658
Rh 8.916829541848971 6.259534178611896 6.717602694705572
Rh 7.980887152643898 7.90807164140454 4.882161902023494
Rh 9.736572753280097 9.332044946754738 6.054997650334416
Rh 5.618779350408111 8.789882148120146 5.5579915694888795
Rh 11.148361597185934 5.400018904960987 7.554713478196173
Rh 5.865962109278667 10.505008623223505 7.526125209956642
Rh 6.31204609852006 6.358831995978632 6.2905580210101135
Rh 9.779900989335978 11.8337543643448 6.53241357931649
Rh 12.225205141503285 9.429847905329739 6.56099934584796
Rh 13.071390887863434 7.045964146378086 7.473262375823034
Rh 10.693819811554334 7.958973998031639 8.018956985391066
Rh 8.4532554190538 10.354840796125444 8.190463168684698
Rh 7.470458623391288 8.255614523379808 7.400237654085079
Rh 7.406572148314597 12.605438408518925 7.23320641253669
Rh 7.396722993072926 4.584490860033714 7.826616038269795
Rh 4.9808933489384275 8.018544510429061 7.93061906887472
Rh 11.019584196619267 10.66669958819784 8.521474502783297
Rh 8.921547916262698 10.410783685563965 10.796261834792356
Rh 6.972090356611366 6.499862992543581 9.362437935760267
Rh 4.961692392130896 5.478324138421272 8.322397748844502
Rh 9.326825140078807 12.608800441892905 9.03458368177612
Rh 6.313457735568025 9.30556207120768 9.747431288884655
Rh 6.879286946555947 11.820230619091065 9.650343136451404
Rh 12.854562337986119 9.01342078425129 9.075918653455886
Rh 8.859860443120235 8.18244769920076 9.605686400029901
Rh 11.767121498660602 6.676224822921483 9.873584703162706
Rh 8.508851407565933 12.767104941856884 11.45930858857824
Rh 9.381917374067864 5.545881941005604 9.341057317590419
Rh 4.904368279481776 7.306960956159324 10.43833428094449
Rh 11.085059036337373 9.081759360898996 10.858814850859964
Rh 7.8224223924703065 5.3712369579501935 11.379066926818046
Rh 10.980834431001172 11.793509866552762 10.814767333232055
Rh 7.260518578298585 7.892898030058524 11.719418450725973
Rh 6.757277981594118 10.480767184670464 11.951750045549696
Rh 9.778606611756244 6.933910181806915 11.546997734974557
Rh 9.248827816184983 9.071977169135328 12.818653771448771
