33
Energy = -190.31795952 eV
Rh 7.937400107971683 11.826372447462823 14.142621073409
Rh 9.389994926623608 10.24866934611144 8.172748256165676
Rh 10.911694770318766 14.646280219426124 11.511860892148572
Rh 12.04146562225001 10.391482299818097 13.411850477378149
Rh 11.938497762946106 12.18258030670148 11.501511340022736
Rh 15.628176719738324 9.673309746266982 11.681640136377155
Rh 14.448240054473873 11.085769056885407 13.396633621321188
Rh 10.802320686160364 8.990675494817582 14.969407209536508
Rh 12.832142825775556 11.861106643611318 15.28760261911014
Rh 9.485553844509965 12.772396479431608 12.359297835586128
Rh 14.278916067190924 13.075283673425865 8.12652558067469
Rh 11.864981476039022 13.593959710934909 13.625544944052079
Rh 14.39705104234156 13.523828487037061 14.036299061521486
Rh 7.630184200663253 11.216402133147213 11.712714460032718
Rh 10.73920918933526 15.460324091237041 9.058895513047585
Rh 10.699282079489798 12.264117901653933 7.859812222584204
Rh 9.853955937744201 10.75916486894335 10.682899152642126
Rh 12.615314727324478 11.502780870516276 9.109270997668617
Rh 11.066068379069142 8.631284630931976 11.718297041060136
Rh 12.78484129972048 14.069751468146366 9.857774158767091
Rh 13.84489834479137 8.607539082662289 13.128311406259614
Rh 11.39480997602078 9.3415298426697 9.312646890739483
Rh 15.006251965215347 11.43122324444932 9.93686905251475
Rh 14.362553569750375 12.920526266355987 11.635607538114872
Rh 12.047464409500344 14.168022723527068 7.390537886073975
Rh 9.449862176090178 9.977423943048947 13.165279074245307
Rh 13.17968401853397 9.866829333244857 11.05686110276474
Rh 11.832550129541698 7.286667800738564 13.617721582617943
Rh 7.782446599091558 11.813202512998442 9.340055582226682
Rh 10.34201497519388 11.926060760339741 14.728632804870841
Rh 13.313714022683383 15.11593288360395 12.168764039595487
Rh 11.284100823669881 10.58361442449269 16.690001209726574
Rh 9.625870733456479 13.327843197903986 9.724837803124437
