32
Energy = -184.17948139 eV
Rh 6.502964697199495 9.324335216200842 11.392640309300992
Rh 8.100748031295316 6.293286634267628 8.378179788581889
Rh 6.480013245790677 8.288727833784996 8.140034141903893
Rh 6.597348257855668 7.042890204343505 10.419011458093365
Rh 6.599638464345102 12.03910246292309 11.353023820539631
Rh 6.50716290892045 10.510222601947133 9.176258145866912
Rh 7.62065239811779 10.538481507648363 13.354350040674083
Rh 10.600928180214186 6.886937726408727 8.580696839592326
Rh 8.58350245378692 8.581746840191672 9.674312796338425
Rh 8.867395728339286 8.462403569310741 7.126055783417038
Rh 9.167100033287285 6.319538066723151 10.726528444718898
Rh 10.21714314939863 10.561717077165845 13.04326273787747
Rh 7.461557038204601 12.91581165305096 9.15420606633761
Rh 8.737030714273896 10.744809985871983 10.930688387767887
Rh 8.793088243686576 8.447912920651039 12.305391045906541
Rh 8.794470326292899 12.725216762470328 12.629349443292732
Rh 10.93275204889879 8.107395509128589 10.926228880912124
Rh 11.276672059740436 10.797459175055707 10.696665206087474
Rh 9.725298384333898 12.918893681897579 10.14279728274819
Rh 8.793095032452669 10.877843557432753 8.227833960134065
Rh 11.002581029007859 9.406862504047524 8.586834138300594
Rh 10.398898895083612 10.376539824911756 6.269285721764792
Rh 12.988302649014791 7.680701674324938 8.185099007731052
Rh 12.388710707890429 9.400103226466168 12.683939610639388
Rh 11.252704951350186 7.9404173930841635 6.275355769860527
Rh 11.29790501120311 12.819011505075261 12.269133403742918
Rh 13.253595396028173 8.945102050406673 10.285124124565622
Rh 12.397034327711117 13.16218906434451 10.004293910821696
Rh 11.10443690793622 11.993265505990996 8.120229116393093
Rh 12.944307597425075 9.878323966190402 6.799208976365228
Rh 13.61470744254409 11.350327071112572 11.552277498982242
Rh 13.347884864057416 11.051151220189725 8.940237589812316
