34
Energy = -197.11604945 eV
Rh 14.235027616113156 9.958363062125997 9.653762444160257
Rh 14.585651477859674 8.898922636696037 11.904827619525234
Rh 13.794449394670075 10.994862939213311 7.380987935436481
Rh 12.893884515000009 12.206053545120147 9.452765829521006
Rh 13.288853577549075 11.167251792662064 11.816374945321526
Rh 13.056922236518966 7.646568702395805 10.293705480067027
Rh 12.575526771977236 8.772041505459566 7.923038833860945
Rh 12.434794892354004 13.243258794187039 7.073389786291782
Rh 13.79529394070344 10.228585206930093 14.023595688822395
Rh 10.440984347554497 7.5589931977723825 10.793075724857408
Rh 11.700732076111724 9.87218582627893 10.092417964264708
Rh 12.114328749348584 8.66307564409204 12.437462684135175
Rh 11.249851798614527 10.974627000068939 7.719487617480096
Rh 11.745465617503353 13.263678555541977 11.503449813653244
Rh 11.330575602311669 14.271879148923041 9.159722350917548
Rh 10.818707289044923 11.00939948598688 12.365231486059221
Rh 11.45127534080397 9.89302692911924 14.565566713171222
Rh 10.168646908552857 12.051703514626912 9.930178546424091
Rh 9.95563232301188 13.171264733719935 7.2635963234180805
Rh 9.616799902155321 8.78207848315173 13.070084111396142
Rh 9.142546643878788 11.028156184933248 14.260998017350937
Rh 9.119446645569344 9.74920740399456 10.58660838789343
Rh 10.062738281715161 8.609381775788286 8.428195883068712
Rh 8.51710832468409 6.782128696653371 9.333461187840573
Rh 8.796364494752241 12.51164774106052 12.133212135711716
Rh 7.813042885211889 7.76967551027492 11.582206077265855
Rh 7.498570671102077 10.235031763550122 12.521457850463392
Rh 9.319361674709386 14.469467043247022 10.674830655085081
Rh 8.05161437481101 13.35929848511183 8.897442414287843
Rh 7.258322088982431 11.441174947529145 10.27935194020536
Rh 8.709273914452195 10.991378493739571 8.076478815853942
Rh 5.914133936779875 9.362312717964945 10.809729887350796
Rh 7.4173773848836975 8.993572719311333 8.782156377287778
Rh 6.076936871965776 7.058491501242619 9.802024130044265
