36
Energy = -209.43715684 eV
Rh 12.065504995499245 9.98291754559638 14.696665498776863
Rh 14.078180629652996 10.883193700043686 13.470725732055548
Rh 13.164394852066046 8.286101063418046 13.077866212865537
Rh 8.080609302778685 7.774463319723707 11.303654311488106
Rh 10.616304033878825 8.869931536659603 12.984757495943516
Rh 11.253141932398412 7.16651222154158 11.150782560728995
Rh 12.33291013322698 12.465227609845106 14.900419916688373
Rh 9.907309093020313 11.523663204906104 14.185673341341143
Rh 9.47202538872383 7.1717728885339085 9.145067440883816
Rh 7.42537932400485 8.76209886366306 8.977694782912724
Rh 11.757117587933422 11.430336461340909 12.507742603804868
Rh 8.469748597536537 10.074186862258694 12.692354054184815
Rh 14.968419736824027 9.432875016338672 11.513003569900674
Rh 13.784540715568737 7.497781859957803 10.446905495121182
Rh 13.352368527900671 13.470827871601205 12.690250681083647
Rh 9.893718670221704 9.29352573757417 10.558207946018625
Rh 12.384635856903635 9.510412856733616 11.040644927512627
Rh 10.849619930897807 13.775088015772123 13.14008474454581
Rh 13.874432138066755 11.632006504869906 10.99521782574287
Rh 6.632435431914769 9.961365815217029 11.128522235953007
Rh 6.963401124060738 12.722920974154656 10.602931068145722
Rh 9.43551626801662 12.138270627719647 11.654046975677566
Rh 13.900287004716148 9.824628740783092 9.056186382946615
Rh 11.771139498664 8.334341587617965 8.809919521785318
Rh 9.708403379221947 9.446574109887335 7.850644962736024
Rh 13.317980554407061 12.33609817268583 8.721757740974335
Rh 11.098442033997866 11.348608603052147 9.571529853322351
Rh 11.709633906186724 13.543260765617152 10.69095945752779
Rh 8.421557530557724 11.030434561720023 9.499117879180938
Rh 7.515678339802555 10.528034885427527 6.988804962387707
Rh 12.009706487774752 10.486939958942866 7.371057032793638
Rh 5.855922020442105 10.941348334307667 8.951997063206967
Rh 9.227005761396512 13.497936795107567 9.527407904427463
Rh 11.306838344230549 13.635807618000326 8.097396463845046
Rh 9.599792306072638 11.977283249083285 7.348804479517518
Rh 7.237786140183051 12.914377003829332 7.980366311194305
