32
Energy = -185.55422583 eV
Rh 10.176269066338547 10.480363519430414 6.78793221381403
Rh 10.193779111615978 13.028575081399842 7.076758023108528
Rh 7.92221380661983 11.713916892375668 7.082258139805213
Rh 12.401666536367994 11.662651614631613 7.6608402702141944
Rh 7.947029234767341 9.152670462844961 7.241740950216279
Rh 12.269917795090572 9.086792809789907 7.267627582819982
Rh 11.002659492276921 12.85129116054103 9.493206237200079
Rh 8.546499123169598 13.30938908613333 9.0455559455851
Rh 9.297809695789569 10.804874328219467 9.095532524369947
Rh 14.21620807505138 10.029442475499586 8.629057194854505
Rh 6.820158206884669 10.307465479560213 9.26261552077601
Rh 13.402146237917593 11.961020387717845 10.16435848296088
Rh 11.771356761281613 10.163341533062352 9.57948142902252
Rh 7.792243034889385 7.924808066471708 9.47439355709803
Rh 10.124073050627345 8.344534278322618 8.3443435532386
Rh 7.940238446615475 11.772253226262322 11.024300772231706
Rh 9.556010519009247 13.677737834263162 11.472692948297809
Rh 12.139522845044768 13.633636278750654 11.67059942051205
Rh 9.774606922287166 6.2842481499119875 9.847002635037455
Rh 9.690382042030189 8.837893337135647 10.861821025668057
Rh 7.394762499041552 9.378133818096376 11.689260081295897
Rh 13.772812756181153 9.557125784701247 11.097152893283319
Rh 11.954575315933903 7.673953948828993 10.157684252542053
Rh 8.117038994975667 6.841767061351962 11.81543591685325
Rh 10.455636784130451 11.246989593474545 11.566937062657512
Rh 8.681362994467657 11.04651280624562 13.35426110898196
Rh 12.738283761912484 11.356997261348653 12.658381854179279
Rh 10.762358377608926 12.771178345159496 13.684228090314148
Rh 10.698925354377096 6.67732385051549 12.191584277498166
Rh 9.314012443697836 8.558029646644815 13.35194090633767
Rh 11.722426705928248 9.003089300979692 12.42231312663611
Rh 10.892123600737614 10.329205216121101 14.409821820086615
