37
Energy = -213.89973366 eV
Rh 9.299714111379 9.437445364093408 4.121955736563027
Rh 8.598989038097383 6.927414934550365 4.646021928867548
Rh 11.181948512231191 7.503196192086876 4.869059201412484
Rh 7.069093359109495 9.03377781234091 5.586689514579979
Rh 11.26657887579263 10.219447515282033 5.947694142109941
Rh 9.511472637545635 8.494922151326334 6.3878826168101615
Rh 8.756125770902253 11.020755490706787 6.123757434786095
Rh 9.980896468151704 5.903428883093965 6.684039711376105
Rh 7.531527293322904 6.816151718847862 7.099243704298392
Rh 6.29027509090319 11.197068900500744 7.4907118501932235
Rh 11.757286104703264 7.78567083832403 7.443523635504667
Rh 5.506090715359746 8.483847686061209 7.674622364666383
Rh 7.804434727270608 9.399582545754805 8.014538324327395
Rh 7.9615062348024095 13.131606023460508 7.1789249869183624
Rh 10.643687227600848 12.253704914068116 7.483076083021448
Rh 10.426280962195706 9.854353558014228 8.432594642792504
Rh 9.553516633081351 7.4323083935560526 8.70922699076273
Rh 8.606778714409273 5.149661078321897 9.250569844606101
Rh 12.218419473582742 11.205371754706194 9.44859951459706
Rh 8.683584595109863 11.72696091416328 9.03707164071119
Rh 11.074478506363075 5.82564456007214 10.05407982110998
Rh 6.900577048063966 7.2661935884971935 9.559525559824205
Rh 6.125103361629876 9.72270727136843 10.04169743282546
Rh 10.701100964498 13.151502651068196 9.866424237437217
Rh 6.410747849281257 12.246146715311909 9.936944153614423
Rh 11.100973671586344 8.496532518095247 10.566222098223298
Rh 8.609478453962813 9.301674126857266 10.32606337536875
Rh 8.471256577184077 13.144708453099419 11.120670139467684
Rh 9.036626768223735 6.925568404498915 11.10544118929623
Rh 10.235373425622734 11.016580559002945 11.132061520998695
Rh 9.50472006151471 4.579876614241434 11.792950931105782
Rh 7.041441661925566 5.5651611331980675 11.521890013452007
Rh 7.586497349074646 10.837439875601566 11.943278043459719
Rh 11.050228184846148 6.686096865789331 12.576479896122533
Rh 6.994352514140087 8.24704152103304 12.089993654783411
Rh 9.483373997073151 8.962118877079464 12.723471262663779
Rh 8.535578783748027 6.5584453202159745 13.523118525632016
