37
Energy = -215.4660828 eV
Rh 7.456222267426108 10.295372605903513 9.904581854722052
Rh 7.929419559323874 9.887494320833982 12.354923714304363
Rh 8.327002341817193 8.532466807087458 8.21694106133623
Rh 9.315802856923908 8.600714604509438 10.5084631154094
Rh 7.647588709045397 11.463205690965511 14.355036630157967
Rh 8.228321609243885 11.05784025487744 7.579471912651685
Rh 8.784677923622798 9.198916707315579 14.778392143657177
Rh 8.242484944238855 12.758278563579335 12.114521425647867
Rh 8.112441124854362 12.835325236059278 9.443593581791966
Rh 11.259086373327428 6.992435242711413 11.00365015700423
Rh 11.172960932372906 7.731941183135872 8.572283873357463
Rh 10.141117002178659 8.249989887169033 12.87714272409004
Rh 9.672833212295428 11.347271540828434 10.730247276399279
Rh 9.846291076138746 11.2275053060529 15.974635110560634
Rh 10.30916662784789 10.035079362343186 8.612466132530034
Rh 10.743135483616113 10.546763354900394 6.236038427823222
Rh 10.055266560525329 10.898786230176375 13.264705873125534
Rh 9.569724735669327 13.167298936144839 14.326118647504963
Rh 11.739350803168819 12.588458308675945 12.143836595454703
Rh 11.512778023482202 9.474481047726027 14.77622749963204
Rh 10.212622308581045 12.550350821824537 7.822547037062258
Rh 10.429510676058424 13.80469395370275 10.10384224207309
Rh 10.142765075816003 14.551399866843488 12.415772590888148
Rh 12.740255232199884 8.137419721554595 12.767687522358175
Rh 12.156955378682113 11.80227591924603 9.544141269627843
Rh 11.632640696865325 9.864593870384699 11.274167436713823
Rh 11.932999439899096 12.045895490782975 14.66017457787942
Rh 12.661492716471573 9.76199373022228 7.860076277562166
Rh 13.231787663950628 8.44633781236577 10.0568583369031
Rh 13.242232507092902 10.579718369177112 13.121033050347004
Rh 12.12278304979136 14.266712948930717 8.22235203762654
Rh 12.941637452998702 14.264775801600937 10.641493335642883
Rh 12.62620517444006 12.10438479304499 6.980166975629497
Rh 14.906655844537045 9.529249295385362 11.638542772676699
Rh 14.592516278686565 10.494493331562937 9.270206872534164
Rh 14.117326339740943 12.041472220643396 11.24690140345656
Rh 14.358742309234623 12.977883037067938 8.768852251334154
