33
Energy = -189.81622534 eV
Rh 10.103824352158233 8.774545425242016 15.890055612742623
Rh 13.997614456497015 14.18784453197648 14.854208533874727
Rh 13.683012182524418 12.116452569752859 9.256322244022716
Rh 12.0166941981031 12.758666533956497 15.62766407399573
Rh 11.685006966676069 14.251955591412793 13.5804378580809
Rh 10.1793378314069 13.267134001186012 11.738734724787644
Rh 12.176884100133664 10.151411923138742 15.203092517751552
Rh 10.365359545812677 9.278055692868458 13.445190121239499
Rh 11.347848401011866 13.33407625256645 9.456880134752153
Rh 11.676268829925725 15.345205427916886 11.147945174990282
Rh 8.499592830825117 10.453037078019577 14.759450789347325
Rh 16.025126225071283 15.577967222049294 11.589903289700185
Rh 11.4143048317776 8.6195256100895 11.249148304253314
Rh 10.532945306053573 8.964760735130833 8.966261778162771
Rh 13.767084221591652 15.532933968450246 12.731688489439604
Rh 13.199836967732764 9.58533799524403 9.641494832515285
Rh 9.001576981637786 9.052578967513147 11.137415116501181
Rh 13.0499485445639 9.612209229439513 12.835611101009874
Rh 14.575686781510576 11.193916403597928 11.498125223499446
Rh 11.72881878537331 11.172883462923467 10.869706817426865
Rh 14.024769085832876 16.799057566213133 10.601653757759978
Rh 9.561713561698372 12.825491399668534 14.365070381385541
Rh 13.863214181625148 11.802090306748727 13.98411999631983
Rh 15.584234185280382 13.439785112166184 10.32229156429625
Rh 13.185840317743267 13.299709524307248 11.6396057382249
Rh 9.514312303286545 11.191252087458443 9.840777175891876
Rh 15.50075843999735 13.378721123152417 12.876620088301086
Rh 15.79021845720692 15.65190996411137 9.050909114000987
Rh 13.472298615454513 14.715210264015269 9.374717204328093
Rh 8.935942268124451 11.201466333439683 12.406341659761509
Rh 11.599609432218521 11.098177862367587 8.210499993055768
Rh 10.182535403566177 11.253868615039503 16.416650394384295
Rh 11.411927900872064 11.634036942169857 13.309250362382391
