32
Energy = -184.40046979 eV
Rh 11.629344424853365 12.749261043957034 12.520863807970994
Rh 13.151608069756136 11.60700658059919 14.297657508935758
Rh 10.2112560924121 13.382941418508542 10.452530938109017
Rh 10.674980252143074 10.70664657110926 14.011403919898658
Rh 9.22108743105571 11.962870350584526 12.273273147343861
Rh 8.531450331037327 9.646746834874245 13.071976762916421
Rh 12.7559069819762 13.367398512924344 10.255424329177572
Rh 12.771753763629114 9.124638941023393 14.206062577509051
Rh 6.818414836220123 11.256835942322068 11.993076174362809
Rh 5.918823123948794 10.730053501381185 9.450582127204257
Rh 8.013617389244702 12.143642426514369 9.887391982879802
Rh 9.22910712866575 13.505761466427764 8.058106540415315
Rh 10.433198445909062 8.118308710125548 13.980969428844649
Rh 14.043961045344199 11.944167555666953 11.945815324576383
Rh 11.33374471103488 14.846476298848886 8.716673944662915
Rh 12.025005202156576 10.274760965438343 12.021616840682546
Rh 7.9558713062613045 9.560751688718204 10.459375008740157
Rh 10.273333823612361 10.72868361458911 10.197876867347281
Rh 14.296607084427269 9.354058491229518 11.520026496111125
Rh 12.457723301895115 7.702193173675733 12.15274325339066
Rh 12.988807018489837 10.829575116536493 9.781906511722797
Rh 10.123316675793028 8.51415925502993 11.518282964685511
Rh 11.526045384121373 12.304352195703125 8.270623037009655
Rh 7.039815058477455 11.938655464051601 7.515156115802657
Rh 11.512445766118477 9.661687806064126 8.063435058916372
Rh 7.522604930877353 9.355269438279738 7.988305467363893
Rh 12.963918489941037 8.241288050444306 9.624066549386711
Rh 9.5760746279878 8.159716891769307 9.015973417205277
Rh 9.359641825599077 11.038619023146788 7.714831906483359
Rh 11.160861679374072 6.598165019657724 10.259238752404794
Rh 11.548552594379492 7.163200367276765 7.780025273862925
Rh 9.627474125891906 8.77367466751501 6.561849069469949
