39
Energy = -229.41212056 eV
Rh 15.354901616187895 11.595514029908669 12.899833536311872
Rh 15.211043382279946 10.793982956939711 10.514943515024742
Rh 13.832889726398383 9.586623677028362 12.324799703406283
Rh 15.24623218880773 13.062023315447279 9.429804331373221
Rh 12.201132502204416 7.74747461048914 11.644181345230791
Rh 12.836911443291942 11.914940349095016 13.381569482004872
Rh 13.568229151716318 8.91182633195653 9.743895202883701
Rh 14.119618097786477 13.382042338341071 11.645985878998095
Rh 10.552408098776631 7.729070246504472 13.619614779959301
Rh 12.753438386860056 11.41367101404944 10.860371534014936
Rh 13.669827140553465 11.219957883578438 8.465231716374515
Rh 11.610278905008101 7.17749609613014 9.238660378499441
Rh 9.704338363989189 6.803381684161496 11.456866347211047
Rh 8.061712389643569 7.232615466725869 13.400908799365595
Rh 11.122921276797857 9.551795346856533 10.111107066436468
Rh 10.260828511420595 12.160906924616036 13.652903146881133
Rh 11.310077130182428 9.949280373534183 12.764127377618413
Rh 9.068327811686656 9.80324808691525 14.090383358509444
Rh 11.576768196529185 13.6977906180149 11.879393235210975
Rh 9.02176655355698 9.307171634711239 11.5375576627371
Rh 11.91247015192979 9.378637765663235 7.719140420989637
Rh 10.131571038758889 11.701710898510274 11.091590293250025
Rh 9.172215312541052 7.82662820577279 9.257768411428739
Rh 6.762551502829004 9.344818319941842 12.90344435056716
Rh 11.151340991542417 11.7532779871405 8.593506367131964
Rh 7.1680285643843815 7.696158399960354 10.845804706933317
Rh 7.90616833478507 11.555952841119518 12.531036326554059
Rh 12.708162327206074 13.580722772628583 9.48232255258901
Rh 8.979816920438065 13.832865545601313 12.05800162362564
Rh 10.114635601598648 13.88165544001815 9.656105815035092
Rh 8.909269084931775 10.45788410734769 9.090425065183224
Rh 10.383407015434777 11.059797339363332 6.312887583844799
Rh 9.37550598909507 8.945032343974137 7.07853770978373
Rh 6.665335843265942 10.275230199244442 10.54234021567272
Rh 7.788455893829373 12.660555217577494 10.146606701239488
Rh 7.013959806415917 8.855467213069868 8.36867643538941
Rh 8.86196172708842 12.62656454179765 7.70723464657439
Rh 7.795877232349761 10.702620203701455 6.184065575281499
Rh 6.602300909670445 11.449699061408216 8.296539877635086
