37
Energy = -215.37500751 eV
Rh 11.998613309312093 7.915828738569644 7.533065293590204
Rh 9.474884015738645 8.427645832031365 8.164755458945136
Rh 13.335592542914576 9.849668138092383 6.653099069054303
Rh 10.494102768035235 6.283558850447498 8.916634258351857
Rh 10.832156977294416 9.969562616565383 6.429060178533745
Rh 12.962959084853495 6.5644567693813904 9.676095994543608
Rh 13.895370396028515 8.889103291062417 9.038631134393286
Rh 8.053628476962102 9.870102559765899 9.84706008906798
Rh 12.205343842304881 12.198850526004362 6.4360232085916635
Rh 11.536792589179615 8.675277810805692 9.877756292474318
Rh 12.921202392179023 11.272122085466114 8.683640958050354
Rh 9.676885212676392 12.370352008304064 6.508084944919688
Rh 8.291475716418969 10.42049964126502 7.284250555078558
Rh 11.138026420853292 6.129246727847184 11.438368623898516
Rh 9.272985432603152 7.717555858644775 10.696542763454532
Rh 12.748642772025324 8.035467720537657 11.92849245120299
Rh 10.451291466901898 10.798558227450766 8.713739875337962
Rh 13.470748313627842 10.425264844227726 11.050535220266607
Rh 8.545016134440397 12.375766561980802 9.062630492271953
Rh 10.990782160926077 13.264206589109579 8.489081268858829
Rh 10.318175862183706 8.171848370725954 13.000380851303222
Rh 11.852360565630715 12.330504317986692 10.676134441903576
Rh 10.216960321643953 10.251813961521343 11.338296979348968
Rh 12.015017532545755 10.057018442968651 13.180271499656598
Rh 8.022425892106652 9.33516692062773 12.365582691554605
Rh 13.057794673863203 12.345334776144107 12.927287454858117
Rh 8.148647250731463 11.820673917004079 11.508429116871397
Rh 9.705242479625415 13.876070754917073 10.76044193563695
Rh 11.924412034825405 14.514596900162703 11.930877766372591
Rh 10.403620814352134 12.434062202938147 12.819865926268932
Rh 9.603587854247131 10.420514677040297 14.149509069575895
Rh 11.680337032664188 11.739735101307627 15.117100746541277
Rh 7.328486461885886 11.518127711522936 13.889971009452244
Rh 11.35962075190826 14.203134878681714 14.395442156731825
Rh 8.27177206273638 13.760196558180715 13.115018365637304
Rh 9.86284322027034 15.600143016063905 12.875272971659015
Rh 9.2924820656173 12.739326852632846 15.224092915315017
