31
Energy = -178.67273711 eV
Rh 11.809940496841355 8.77887404737413 12.786505363684642
Rh 9.422361732717679 8.086900949578563 12.024465175369048
Rh 12.13275187415524 11.329342105435638 12.513431465613493
Rh 10.144618192326567 12.922581492575073 13.025047299382114
Rh 9.87970220263648 10.320165470561996 13.385340524747242
Rh 7.478596016957958 9.728417274764775 12.608970730292311
Rh 7.975495012504474 11.870987727022957 13.873613820940104
Rh 13.215976950538513 9.558458843160327 10.80969687204394
Rh 12.545956000160707 13.77353316369367 12.237134028515003
Rh 11.477158591185772 7.634229429898408 10.5280950601638
Rh 9.015014630487421 7.0049669124738925 9.735324931107789
Rh 7.0185610812753465 7.602108055719086 11.281031833040045
Rh 10.214393815119982 14.902396465966094 11.528509235358277
Rh 10.602440191260106 10.183100359723307 10.828194858565713
Rh 8.513833355562069 11.767179208120215 11.427752004524699
Rh 8.76492347871855 13.695732021427588 9.941227143403903
Rh 8.12032873662114 9.54618723519238 10.095921114238042
Rh 7.17207109390136 11.719843118188077 9.14654473254744
Rh 13.582164246390715 12.132369853358362 10.477537206012258
Rh 10.287812591912619 9.02218802524028 8.59123602401901
Rh 11.138726244843442 6.493136779221336 8.309504949596212
Rh 14.538856667844534 10.385612850539902 8.864714989177822
Rh 6.87231783234885 7.913519405749176 8.590769572066849
Rh 12.838877806185344 8.486124790525112 8.427292479978071
Rh 11.11513258225139 12.736139591680747 10.432999304332395
Rh 9.59634410947234 11.679497535109943 8.657958219633764
Rh 8.150794782026589 9.871852672289918 7.4497765568912095
Rh 12.093500171421494 10.931521608060567 8.701475492457266
Rh 8.912415207810268 7.420863205003569 7.165619285424057
Rh 10.580026457329849 10.593796469096969 6.571182831377329
Rh 11.287967246545724 8.253510085289692 6.323335793372805
