39
Energy = -229.17060841 eV
Rh 12.90588229595274 7.880948555232473 7.8121552089231034
Rh 11.05068764492528 8.803380004474025 6.2270863276955755
Rh 14.724893586092728 7.083248828445906 9.4268353358673
Rh 12.404889475553917 7.588799497232357 10.333514497518777
Rh 8.776617031938146 9.47786767969051 7.062784370585903
Rh 10.548456273170684 8.418286068377602 8.692701723423797
Rh 14.017438163052262 9.513395159660819 9.513020574402482
Rh 12.184584135966613 10.397273247846874 7.807919606984684
Rh 14.518612790222113 8.243871661509965 11.714570222721429
Rh 11.508749048336272 12.93580408050706 7.998488589203988
Rh 13.849382644571007 10.719995736979257 11.830252197785363
Rh 12.191426519151683 8.703131339577748 12.709029429862634
Rh 10.134515770125105 8.114183185253214 11.241717506680118
Rh 7.906917948535689 11.842481194882101 7.326234989664086
Rh 8.169465731231279 9.047019277497384 9.565258101616951
Rh 13.324322564717152 11.947162768046521 9.592573512360167
Rh 14.260605120771492 9.427736429261175 14.01288835098327
Rh 11.64485689812273 10.098720675199598 10.439409554895631
Rh 9.871354079393598 11.006218031732388 8.69890384073621
Rh 10.930559359209772 12.610470666564686 10.523912646723803
Rh 9.208856720081366 10.642225384040199 11.384418865801932
Rh 12.56330798406679 14.485711197745816 9.781141612951412
Rh 7.764245613279308 8.56834421393862 12.097197777454593
Rh 13.048227728843996 13.198376092112508 11.936640179416251
Rh 11.408934647017842 11.233308820564407 12.771820212100291
Rh 5.989053440623437 9.74829653213555 10.839658591949808
Rh 9.741540083670326 9.328262200164055 13.605991426794748
Rh 13.455718526545647 11.87006612130627 14.17467828338964
Rh 7.426729690047035 11.53426215495473 9.702557298697096
Rh 11.869667858844002 9.94216259795179 14.994486534504624
Rh 9.12919653650234 13.550364588581129 8.851472064893644
Rh 10.756570793611072 15.411572400495068 8.29881387138958
Rh 8.574761158924668 13.282904835177956 11.451533289468307
Rh 10.106866766511505 15.087619459071322 10.711971504557242
Rh 6.881330944791876 11.653089111895694 12.217195080534829
Rh 7.241081952293887 10.004249015304596 14.051939390606343
Rh 10.722245313697428 13.78354956932452 12.88180114384709
Rh 8.994131907169184 11.844320575053358 13.705154247713855
Rh 11.06954344255716 12.446859646693186 15.025047014712417
