31
Energy = -176.32873409 eV
Rh 10.879274967633783 7.902153429009876 14.766050476852204
Rh 10.169337961503386 10.068809293555384 15.635864760840532
Rh 12.85912176957845 8.793353710938877 13.79572028953728
Rh 11.465113223274562 11.049973171720595 13.776102314194063
Rh 15.167965066491305 9.073104913906795 12.731191324117216
Rh 12.624281557402389 13.238264959052017 14.195072860566356
Rh 8.560191645599561 11.808263661875218 15.527638635010579
Rh 9.57508886009178 9.409949896493147 13.282850663492578
Rh 13.959967455986932 11.12865522136575 13.423989046544918
Rh 11.562134938792624 9.230215810148353 11.659836960476117
Rh 13.520830381589706 7.709294210719265 11.488055436136785
Rh 13.718456720384541 13.109427037283497 11.915836705474636
Rh 9.935794401637798 12.936769311970016 13.845327611714579
Rh 8.123804293744964 11.410915621679626 13.089605401444642
Rh 13.820862505924731 10.313094020001305 10.953454330753171
Rh 9.389950482371729 10.460723495564165 10.995147774965243
Rh 11.37330271398114 14.311009498656572 12.261649534763675
Rh 11.570514234911448 11.869430776352923 11.211766309295783
Rh 9.271467241946095 13.026079594974581 11.411075503001806
Rh 11.15981961580642 8.982455636674365 9.253363990036572
Rh 14.57099121222951 12.318591676854536 9.610733561132099
Rh 13.597592481840381 8.365657480228352 9.161049476907206
Rh 12.199504725127236 13.190325570078082 9.126319045811252
Rh 12.817734594754286 10.747581876429845 8.61516076318436
Rh 10.39975830871018 11.38747188175246 8.849698778157956
Rh 9.673011346361578 13.842758063509585 9.115288716737824
Rh 15.17953544951586 14.511803765949692 10.465891004392036
Rh 8.003510800989831 11.991874693081714 9.46451631697353
Rh 10.32826270087806 15.668604887748556 10.49225857585758
Rh 11.954842074427601 17.292232421480787 9.873432391411562
Rh 12.866312081716003 15.149490226149243 10.304387255421705
