34
Energy = -195.17490673 eV
Rh 12.856913926215498 14.447209473063364 7.86903835924591
Rh 11.395051146994522 14.389005162015343 9.932919223376121
Rh 7.655291992266396 11.068515880084853 8.208173965421475
Rh 10.66333372783494 11.535030912056811 11.226769358847404
Rh 13.894950719347024 13.59012974893483 9.995195712581197
Rh 14.853054855237668 13.02808953177523 12.198090618720967
Rh 10.660805081695322 12.335036199871938 13.801060154633689
Rh 14.27939295648919 12.376528222716148 7.797134130628768
Rh 8.49341246520429 7.794353564444379 12.405138752090801
Rh 11.90486419805835 12.250278886758355 8.760760398914327
Rh 11.74284926264609 9.74289904787213 9.531398738292278
Rh 12.698458517492448 10.418046590509524 7.197181337863973
Rh 7.260157913699438 8.682682984085904 8.147148328076405
Rh 15.224317152619777 10.298662442915308 6.911831074634305
Rh 8.280041820859422 12.262641514547354 12.527261756264382
Rh 9.445589747963385 10.107464523382278 12.985667511766689
Rh 12.054248834928972 10.082413407058217 13.09204458945407
Rh 9.949806641445798 14.01447634239591 11.914020378714739
Rh 10.657918882244118 8.045565183651293 13.978593212558444
Rh 10.815297612634994 8.434712443518997 11.4485130433402
Rh 12.374806932346148 13.487049383085894 12.186962610175806
Rh 10.117217545815906 10.783623918398288 7.835716261019634
Rh 9.335424190057106 9.018367835335857 9.490612340385564
Rh 13.357325847075666 8.838095614730438 11.28552339620551
Rh 13.333695895784324 11.324892728525008 11.059095149493343
Rh 14.298884129613226 10.033673875991669 9.133035613984694
Rh 6.949825639151385 9.802278113930598 12.821410914521953
Rh 9.4288070567843 12.724689117656855 9.455969316430975
Rh 12.091026340506547 12.03100361617425 15.876392263627167
Rh 7.032929194571441 8.567179822033971 10.546037740189544
Rh 8.39221529483722 8.82945764460192 14.849489313453983
Rh 10.641524805771699 10.226145689297118 15.31597168880465
Rh 13.440517518264814 11.942007680018977 13.91037607190634
Rh 8.01059479314517 10.824813545377673 10.61879920092946
