35
Energy = -203.44935142 eV
Rh 11.907864119893704 11.44632448250055 14.99128892520558
Rh 13.80205057850463 10.872801595503562 13.38607393456015
Rh 10.412442676507101 9.30390961181769 14.8140771386775
Rh 13.318998236873547 13.349646916207742 14.055218310312712
Rh 9.351946925366398 11.666069447149807 14.919870734921336
Rh 14.97322500633598 8.836856218781659 12.632208293356028
Rh 12.445208393116337 8.709185386222257 13.0746620577715
Rh 8.26873278285177 9.927021885215598 13.365442901230633
Rh 9.962884439433235 8.343492739333199 12.480822273499982
Rh 10.829002876950012 13.25999399616517 13.485896680495777
Rh 12.970524516974338 12.579772570975821 11.670399613725328
Rh 10.951563345874218 10.802393997415503 12.72083208104536
Rh 12.120550152045846 14.964669889566423 12.157279255633188
Rh 13.662804409485254 7.816257970853273 10.717797605592025
Rh 11.550308457572322 6.648502312501049 11.553774662795709
Rh 8.624080806655275 12.26321270498731 12.497974051533376
Rh 14.048681214120158 10.381518343512509 10.794599941073164
Rh 11.003136541368807 16.211214967895454 10.295292371580507
Rh 12.4067056444403 14.157900556466116 9.742381978923838
Rh 12.433624427846215 11.602226252019701 9.260636070070076
Rh 10.594511041254766 12.563960726219529 10.822605661670986
Rh 9.471898659876082 14.6082927423116 11.61624551421787
Rh 11.629664536822872 9.395861008763204 10.667252887536648
Rh 11.789429453740482 7.142596662175599 9.048969037995272
Rh 7.550686479030023 8.413595332255904 11.496901313804004
Rh 8.15570602612562 12.815902660207318 10.07295217383686
Rh 9.087696367234896 10.320867911648003 10.703971269136844
Rh 9.487279271587528 7.633158651191385 10.114575652746923
Rh 11.626641145833192 15.74590994968955 7.8564216624202485
Rh 13.113904533073606 9.261420876089035 8.532907827360088
Rh 9.82410076309527 14.369244714357253 8.940987780898025
Rh 11.664971794807922 13.290028752427087 7.4549894828089736
Rh 9.866803452071077 11.734845702804433 8.498238364626431
Rh 10.371952601993868 9.254464030410233 8.466496285723993
Rh 11.665346927520387 10.783696027354303 6.915384658602319
