30
Energy = -170.94646857 eV
Rh 14.009247182518067 10.732404964543033 7.053367064821048
Rh 13.294252851643519 8.541543390727892 7.6541977294768175
Rh 11.971076181658132 11.679516341803774 8.061684857696065
Rh 10.466803102622078 13.713787342082641 8.98585815119859
Rh 11.159349056075392 9.290426524717367 8.682152054232269
Rh 7.694437681894809 12.734037696702993 8.639369369881
Rh 9.693327328021391 11.329221883271194 9.15216032716744
Rh 14.274527919184404 11.423837014609578 9.36000434115161
Rh 12.69189608172046 13.393176753127268 9.891413532945277
Rh 8.872521968827424 8.9196191584842 9.893207292274417
Rh 13.481771588218235 8.982759107504899 10.006300365367547
Rh 7.3375528396956735 11.036325801477146 10.339515960408717
Rh 11.880686724928278 11.00755992208367 10.553490735529753
Rh 8.511832911983312 14.29514663998357 10.280813234890926
Rh 15.77045518707917 12.373644935422044 11.004005672140291
Rh 6.632879821950229 8.744935506613771 11.157522117267566
Rh 14.327968687230115 14.227049610686581 11.470909032350407
Rh 11.086360145335231 8.493057537999785 11.18327664501743
Rh 9.593070047402621 10.696752216788195 11.697696091772892
Rh 8.263187266479315 12.789964407901545 12.08637809072957
Rh 14.199445778638424 10.73238210544409 11.892825750566198
Rh 8.745183715996015 8.31019894750462 12.417618119084924
Rh 12.622400690482895 12.708735648299559 12.388575736904688
Rh 7.278638882975082 10.473668830420843 12.891542571355984
Rh 13.31705738735388 8.34757964580607 12.425751196578359
Rh 11.931105248329157 10.303300307646715 13.078216542562542
Rh 10.399360086409231 12.435034175323679 13.358724720488283
Rh 10.915918203354043 8.06227970514438 13.693025830690564
Rh 9.531273828941837 10.121055220696919 14.229013194089877
Rh 8.122422211657272 12.177009265787069 14.547394279963681
