36
Energy = -205.48948343 eV
Rh 9.939243459086693 8.229275758877082 7.619423640236386
Rh 9.473791968252275 9.716186291140076 13.23166210524837
Rh 14.75980463501342 13.803870378125604 9.3215526657641
Rh 14.941457571166126 13.62609696950973 13.245145033599306
Rh 7.116989512176416 12.840983061940914 12.785218209015074
Rh 10.415679683223257 10.41180494046952 8.619006454804179
Rh 11.058368207163474 13.767689584353224 11.432021562974247
Rh 8.285536476078331 8.15911204223017 11.768571299037974
Rh 10.795509037458466 10.05077803084042 15.202547826305317
Rh 12.596168410379464 9.174178423776613 9.679272290916476
Rh 13.713647590312767 11.508483591086227 13.692027134778634
Rh 14.110137019635642 10.298008899189808 11.405244912580413
Rh 8.12706461441264 7.510894564798329 9.176905042282542
Rh 8.18126060742312 11.613613211434378 8.00018245056609
Rh 7.781404597104474 14.075604127947715 8.678771684942802
Rh 12.461945865324829 13.738919277298013 13.589640422021644
Rh 11.69403012058705 9.242688160062011 12.081703123910135
Rh 8.550193761092599 14.171438632745755 11.108004775878593
Rh 12.144516054815456 7.432623012000694 8.100730828756962
Rh 8.26904281709111 9.949501779742683 9.859358007312546
Rh 12.751985936133837 9.119529113462688 14.2106791695438
Rh 11.2332006169609 11.610113157817617 13.270296990448495
Rh 11.680306217403137 11.365445173014558 10.623223446083728
Rh 15.006247100023998 9.38506911564183 13.45363038333279
Rh 12.317344936858783 13.503289028296248 9.149842465759184
Rh 10.29230082911693 8.271869005879896 10.215619273980446
Rh 9.962490609402343 12.916964054061236 9.218150773627555
Rh 7.0876538045524615 12.21090261147861 10.245688052505214
Rh 6.202299009967408 8.60006436763388 10.45989103146569
Rh 14.986478522321553 9.24223464704188 9.067052872070205
Rh 9.23306974599041 11.660349353345483 11.605158420501322
Rh 7.023585123910892 10.399057775181438 12.13655380511527
Rh 9.559327039296377 13.52665269722646 13.427333933376355
Rh 13.600036025415317 12.962818258341658 11.334462065792126
Rh 13.944566612421005 11.469141040858224 9.152065822355457
Rh 14.261593109874577 7.960339151585826 7.208939513787136
