32
Energy = -182.66514243 eV
Rh 12.867731734953379 8.664173149135687 7.795762034360685
Rh 13.921792045615904 8.831897490598628 10.174423222943146
Rh 10.74706857135953 10.035659298406726 7.493141772004341
Rh 11.352102220281566 9.108127735535465 9.771623536998007
Rh 13.98858676437255 10.710141179763719 8.562588191040557
Rh 8.919085260350016 11.604990187310841 7.124001112971913
Rh 14.793679469270598 9.312324227882783 12.513537223738707
Rh 9.212086240314813 10.586583077042365 9.477574267861641
Rh 12.366208111997793 8.920614689848895 12.163076481470144
Rh 11.774006112295757 11.69259696323186 8.941250899288107
Rh 10.00323071150659 9.933153423941768 11.783029358496119
Rh 14.453961908326619 11.293088442225693 11.025569292928317
Rh 10.305886561114978 7.572780762865883 12.573462765209037
Rh 13.861664390138788 13.170402053447711 9.476491134774164
Rh 7.396710434661472 11.482504181388212 10.87472644296588
Rh 8.67570867106769 8.350611879663001 14.24135034615905
Rh 9.56781248451748 12.534356114841618 11.355282639386132
Rh 9.686459820947384 13.087617607381208 8.881951666446929
Rh 10.969816819465862 9.408647064341194 14.246698629645026
Rh 12.010387991088598 11.415332967128933 11.460123152372907
Rh 13.748696986767875 13.373684624043417 12.195909865195054
Rh 7.89406822852056 10.21024014309174 12.91383222455721
Rh 11.647010620471084 13.8161478923183 10.471874094482496
Rh 9.775980357999774 11.549795337091032 13.89782225047864
Rh 11.72225957497902 11.345048161403062 15.593153586790732
Rh 13.274255995591377 10.996553396156513 13.625101260803591
Rh 12.738643893347211 15.704986944266537 11.75024366000897
Rh 11.072648863458513 13.487888974029083 13.117609343377163
Rh 14.207977729135767 15.261822213316352 13.754854898369961
Rh 12.895207643216061 13.29432744869681 14.713887108015733
Rh 11.746479254713822 15.64171693337019 14.072264889708684
Rh 10.210532482607405 15.409933390689396 11.765530601606269
