32
Energy = -184.06216382 eV
Rh 13.827930649832334 9.626924785654335 16.824738580524595
Rh 15.690968854901476 12.582987897723193 10.112632696696046
Rh 13.571944038358687 11.099773341708238 10.321575464601112
Rh 10.87512715983682 15.989526881930264 13.308534761075235
Rh 10.33492300549573 11.442237756172227 15.352165447023186
Rh 11.164945693605292 12.257798701199215 9.96961618984292
Rh 14.523167330135013 10.48994227167977 14.494056739651713
Rh 13.494647179621463 13.721304907801413 9.698443095265555
Rh 15.060077788679143 11.759192113894665 12.365596950480663
Rh 13.851295251796879 9.471807601138805 12.24476190222114
Rh 14.779211905930831 14.2937704607604 12.01357462584882
Rh 11.556625009305412 9.26380471990795 15.923087962126818
Rh 12.68399321904628 12.84811023435136 12.082470885879028
Rh 11.715829324896566 11.174588756062077 17.535078525430233
Rh 10.483760298859714 13.609338555106062 14.126306079261747
Rh 11.977736850685202 13.05071439290555 7.7022107681000715
Rh 13.919126157701733 12.133095223275909 16.637894770803577
Rh 10.365480968467967 11.679229675456265 12.33989016272047
Rh 11.240806867115886 14.796737753170031 9.32142932627687
Rh 11.74523462711364 13.557038563816974 16.340848178195483
Rh 14.255783329906878 11.840363647236018 8.005465005748912
Rh 12.056987553371684 10.497056088610094 8.346683634059488
Rh 10.412015794515657 16.563198778580595 10.84794537391075
Rh 10.351884293224503 14.123165120323051 11.656949843146847
Rh 11.49814578724695 9.837823007172215 10.947673211210589
Rh 11.738517031479851 9.939915620452382 13.525007644407857
Rh 13.389314907704017 8.23693046731073 14.5550306119189
Rh 12.58756397287989 12.068192695656078 14.48727955431048
Rh 14.031431927681973 14.651426573286734 16.29920783777034
Rh 12.983609668181762 14.714692064300554 13.950162185496385
Rh 12.609650724422071 15.523567266890451 11.471427721898673
Rh 14.929464233222758 13.142845252601731 14.46897841769814
