36
Energy = -210.25127179 eV
Rh 8.211382852131633 10.327372381709012 14.15858146591316
Rh 7.345916943148396 12.008089104454395 12.461586462795369
Rh 11.301984066153615 11.003625349707573 10.305551871931515
Rh 6.856588966285644 8.613872058116621 9.499167518537396
Rh 9.923808212983632 14.033265648056641 9.172947729986422
Rh 11.108815196615673 9.541919456999821 8.09517152104322
Rh 9.338911966144412 9.923619160661296 11.884098174078556
Rh 9.040836855068763 10.062932839841578 6.746520078135279
Rh 8.08699551149015 12.264110718696687 8.204200328240084
Rh 12.850588393936585 6.759779789080755 10.594414131308996
Rh 13.810139856845266 11.155204086114788 10.489561118699095
Rh 13.09318006662776 11.098558231091104 7.895042542948237
Rh 12.781995719916257 9.119037694649514 11.865959011623302
Rh 6.720149033582194 11.077444983713022 10.082264532015806
Rh 13.306312656955198 8.92728982897928 9.275492868224848
Rh 9.082132978321027 12.240028214911508 10.63874658926581
Rh 13.115820941696535 8.783209035721665 6.6484779811797114
Rh 12.387825867929521 13.138990156404699 9.237683384635844
Rh 8.623567953832035 7.504382244526978 10.933119418300018
Rh 6.996001123792895 13.57862103777464 10.344296997947794
Rh 10.892047435475936 8.447877751408964 10.349484401761792
Rh 11.438581096060117 10.635384794166477 5.776409022800838
Rh 6.951529015076384 9.315922154931373 12.003184866820597
Rh 10.588676473132864 12.039258349163894 7.754920728192899
Rh 9.297909412271897 7.650850817011224 8.322388570642511
Rh 10.45184013289074 5.930601094137274 10.002639140203286
Rh 10.956681829099388 9.586583686703541 13.641259782992169
Rh 10.680940435137341 8.05656282938001 6.047375627729085
Rh 11.87552583799892 7.033094143574914 8.138791687597173
Rh 10.946558711121325 7.118268985337123 12.399371601603908
Rh 12.405978025925549 11.505443029837151 12.712549841490873
Rh 9.919624677682847 12.072080992471891 13.277134036310976
Rh 8.808063897374351 7.969674516501543 13.471594742373398
Rh 8.819912883918771 14.177030255255056 12.256641733285496
Rh 8.91529846237181 10.030966718642294 9.308957474091232
Rh 11.20760331314478 13.409617815223365 11.460482405859622
