31
Energy = -178.33620339 eV
Rh 12.365495646146133 8.92726435645061 7.067091614177529
Rh 10.01951163655301 9.946522764583069 6.949954688249823
Rh 11.945615877626468 11.42288812090197 6.240830799298986
Rh 10.304903464640244 7.771282511155785 8.262244636612742
Rh 13.912118974752156 10.960366762220675 7.789790644716719
Rh 9.772513449219757 12.513737293506578 6.9690962035322785
Rh 13.61566346448459 8.989124238406342 9.401026105763945
Rh 11.477005430841263 10.478679847676329 8.975986294168429
Rh 8.347539984723094 10.867828410911844 8.460813481502798
Rh 8.166228424380957 8.421847788353261 9.304654817861852
Rh 12.229880515306222 12.88363840324073 8.382892460952114
Rh 11.382241072395532 8.397635530092456 10.411954261935842
Rh 10.073141187449478 12.548366847924802 9.463078038740752
Rh 13.536670304833672 11.514524174568937 10.191103145934227
Rh 13.426947356496354 9.395022112348467 11.916932915707735
Rh 6.265895100855384 10.184465574298782 9.592810360527523
Rh 9.260068591300486 10.118792957262727 10.755353924929635
Rh 13.498863622891083 11.896446892819043 12.722921448404575
Rh 11.921744047409545 13.282148923002104 11.082704069851605
Rh 7.523853282090504 12.705687407778557 9.939907086020408
Rh 9.293643696215009 7.451104650979587 11.498242167884934
Rh 11.439679659936461 10.87540756761157 11.707515159728873
Rh 6.837547564532702 8.416732003166498 11.471184601179043
Rh 9.387511480753254 12.48730995007134 11.869890899544052
Rh 7.200476420914972 11.002354952584877 11.754595497272506
Rh 12.703872654518639 10.097829722007374 14.358594344786509
Rh 11.117448534236997 8.684902603807078 12.963102652432767
Rh 11.032443666459402 12.097595064181336 13.806956376216215
Rh 8.590704561097212 9.238579777978803 13.108527790643647
Rh 8.394233544680992 11.598069447583542 13.991158273601254
Rh 10.190450127928331 9.99276319419411 14.913774643119188
