44
Energy = -260.14639268 eV
Rh 7.361007988988222 10.410146750785772 7.325604488507033
Rh 7.647085884748185 11.810242260871899 11.312391042788635
Rh 9.679632155410975 9.26801383047329 7.873677576341264
Rh 8.016376265426477 9.832990644813412 9.711193063085654
Rh 7.947783941259877 13.85236784520695 12.778433353515007
Rh 9.276108455182 10.882039379568724 5.885264937015935
Rh 7.790756908779053 12.354121532036583 8.722904115414755
Rh 8.663732133253147 11.463492839984086 13.689793586686042
Rh 9.807814806749004 8.072197793477297 10.273201927915656
Rh 10.038942968909348 11.358562884160726 9.400587668086443
Rh 7.49828151739203 14.231579389463 10.367978503540584
Rh 8.376711371258946 9.428656035454793 12.150689848837668
Rh 11.849024199377965 9.400795670410462 9.28857801369996
Rh 9.896780699847492 13.717792234005318 14.300921839399022
Rh 10.481962539799557 11.527963242175481 15.470055350775624
Rh 11.545246994428657 10.940100297069227 7.202011883318911
Rh 9.762423507791324 12.867225669606553 7.24483874119235
Rh 9.93275372493431 7.259466445151278 12.74714678140048
Rh 10.091773970902766 12.52394303245563 11.846643082075683
Rh 10.149963836857415 15.156798410895288 12.122436603625314
Rh 10.728117712990649 9.98904419202842 11.550366959548912
Rh 10.334036576563998 9.47389587501758 13.970697366566295
Rh 9.874622440010834 14.0053518104467 9.722760150133347
Rh 11.972241801480735 13.094944924411582 8.558419495409487
Rh 11.99436573185317 11.448911490729468 13.288710548159713
Rh 12.165854968096594 7.957864651894537 11.574290705135237
Rh 12.046889165671676 7.74192191007974 14.133644253034689
Rh 12.090043570073407 13.438921572903993 15.838372505741537
Rh 12.471241669957703 11.736577315179224 10.733092280571046
Rh 12.253716957072173 13.941804841015484 13.358629245075297
Rh 13.613248696868332 9.415799919368654 13.170393685000125
Rh 13.014522961751283 11.00285698716519 15.54469238506413
Rh 12.193460450628564 14.32563375435672 10.834267766755728
Rh 13.727868242297056 11.074130642795476 8.537386760866664
Rh 14.576710157545797 11.638340497855635 12.232056664205075
Rh 14.264264638013078 13.355430786695507 9.683873045377291
Rh 13.991084569188327 9.6332224566642 10.690911519898759
Rh 13.882969282458577 8.720594770794516 15.585469632595753
Rh 14.275142680706656 13.004163462521557 14.563797844791898
Rh 15.416318281618144 10.700526543417798 14.447837809119324
Rh 16.655760454704016 13.562426888953834 10.87744889314292
Rh 14.47091877609898 14.176272876773508 12.111047385599925
Rh 16.433230855725274 12.902170820537506 13.28070886684794
Rh 15.817858465196773 11.379347798195486 10.075424802005452
