46
Energy = -274.0419194 eV
Rh 10.927042368605262 11.019806132313075 4.789996136379466
Rh 7.79559812158277 7.874816257690439 5.676056587122512
Rh 6.837140680516274 12.237942596473221 5.514381895661647
Rh 10.375683818118704 8.626209363694262 5.074724297834006
Rh 6.1663843155848035 9.808866278419824 5.532724565754865
Rh 11.535331859342785 11.95839062488665 6.92464454340701
Rh 8.68698876034536 10.567926239821533 5.672827835530006
Rh 8.935080816099797 12.776613061896938 7.118731090477798
Rh 9.558253042442185 6.144585130397682 5.6213844853434844
Rh 11.820748463405597 6.885048488689443 6.671318698448112
Rh 5.676871644785003 7.7274177192573115 7.141435420449635
Rh 11.929065010923281 6.59864809299562 9.134121708397391
Rh 7.304640733519604 5.63362679066022 7.053230499612493
Rh 6.622136450858511 11.94335107757281 7.9588878334625175
Rh 9.726585966793046 5.640607462904279 8.129444269527223
Rh 11.9839991930993 9.380570014931036 7.230141257983655
Rh 4.8332070268152805 10.162752591012175 7.8548820910772035
Rh 7.38586984691033 9.63378238339674 7.709541896132381
Rh 10.692728927706124 13.104997704376569 9.066595129605433
Rh 9.740463700574546 10.619770791571103 8.17233983840882
Rh 9.679396421083288 8.153735183730895 7.376111153358202
Rh 5.7137688145883905 8.622682851572227 9.664811505890976
Rh 12.360729631350607 11.06121175238917 9.170527872175125
Rh 5.5529834780108445 6.006134066756204 9.049153052745494
Rh 13.34673041531974 8.723501323174114 9.55902441764348
Rh 6.432045676413386 9.245356817612034 12.077775082668483
Rh 7.814809597001632 7.295246233373976 8.869976556123149
Rh 10.756931149925506 8.726709224869497 9.608575990187168
Rh 10.274012729928002 11.03661544468905 10.67263046396685
Rh 8.233540247401859 9.514862839878651 10.164215729083264
Rh 12.187004514755227 12.693238609559833 11.228571398446498
Rh 6.63965653782109 6.7761413196615035 11.25553371818569
Rh 9.22873122894112 7.2057297227801325 11.006283937948666
Rh 8.272441171920335 12.391452788648474 9.727619666147165
Rh 12.436669829706792 10.102116385951128 11.62309180746859
Rh 7.876259648123526 4.938620977173545 9.821505612410917
Rh 9.693888038657411 13.383046246160053 11.565018518310094
Rh 6.12705835696028 11.117915084749221 10.370016240600796
Rh 12.003840771979531 7.530191784789015 11.5191622595054
Rh 10.44275610994662 5.135774441551867 10.541948944325432
Rh 8.411457382276271 5.241844832736675 12.40945765809393
Rh 10.114704970233785 9.164097267121255 12.476160431304667
Rh 8.072424597947306 7.764638304851128 13.217684577783533
Rh 10.755251556203243 11.532529836015053 13.125157281552776
Rh 8.190940976453838 11.214753485110604 12.153276393046145
Rh 10.40720878933904 6.635187762450117 13.25836304072944
