40
Energy = -234.31483876 eV
Rh 9.431050744965331 10.095274302396525 4.6130324593771075
Rh 11.001739700747901 8.404274750026126 6.052332230266894
Rh 11.282941212154908 11.389695057402731 6.025268589670738
Rh 8.369858907807439 7.990462184457695 5.810115691510824
Rh 6.994618016572633 10.383539167382931 6.512182499380094
Rh 8.76665752378599 12.254007305564317 6.094339336725275
Rh 12.641000042729402 7.382643218012559 7.80107980747202
Rh 9.353584741121619 10.014076795838847 7.063943755577232
Rh 12.988479481744116 9.743070931737659 6.9596244392124404
Rh 6.040083688472105 8.082734531945341 7.060952202054024
Rh 8.158950752452458 8.036259462356599 8.389771200768362
Rh 9.82909132540015 13.333031523991222 8.094995835354238
Rh 9.975889119827997 6.512771770097501 7.4346342221404385
Rh 6.3192405848198945 9.805818240741777 8.964370007005106
Rh 10.741254970350635 8.539052213331676 8.79606006663638
Rh 8.058041304180984 5.56524353115268 8.864628815982796
Rh 7.574746091965404 12.135893260604457 8.433418454552866
Rh 13.247381904172531 12.065204584575206 7.8840262036230415
Rh 11.032340012762317 11.273961423595804 8.558050410274314
Rh 13.10608607683044 9.75269254064981 9.45769390266893
Rh 6.180469544778786 7.238856606118676 9.680398386028651
Rh 8.7667904813367 10.30462370750605 9.52700306251567
Rh 12.421292232563292 12.190489208568401 10.552079492158585
Rh 10.349384435429705 6.098999991558523 10.03037269308755
Rh 9.620981033388183 12.488413508365193 10.60720888598879
Rh 7.025747658850543 11.552300118753967 10.96039203332677
Rh 10.980338471124098 10.108433092735709 10.826814006108169
Rh 12.040230874804589 7.835130110866624 11.066244668854681
Rh 6.7750185732039805 8.886356762797561 11.445486080979586
Rh 9.193941809721165 8.135530320042763 10.86079773096913
Rh 7.926618796422446 6.174751507293325 11.347688112674827
Rh 13.071562337286673 10.184269597194609 12.158496686473343
Rh 8.880273097131441 10.319825042699424 12.1841779091761
Rh 8.53897136255786 12.627455274753876 13.050434265293894
Rh 10.98814048402762 11.718922922249558 12.843870752240187
Rh 10.283367782586668 6.561915453766037 12.60674560382298
Rh 10.908537907049784 9.007061720660468 13.18528149609231
Rh 6.793092463320143 10.434332176415374 13.462309598456821
Rh 8.38560194239267 8.156642382389771 13.449881864672914
Rh 9.283024441149612 10.54240563139398 14.610218472817056
