48
Energy = -286.62134946 eV
Rh 14.903419047275289 14.814401169568168 11.800668152871866
Rh 13.177537974179309 13.958469061155249 13.451613804226376
Rh 12.065639023328186 13.597922996123652 15.614516549034851
Rh 13.806204607737342 11.730507183463503 14.586188444441028
Rh 11.016224460836508 15.43756118588939 13.961832831301095
Rh 14.872865871436009 12.309313963387728 12.238561219105772
Rh 12.610577172810425 15.946257389144352 11.86496537725212
Rh 9.920015082414436 13.07758038934624 14.232143124535993
Rh 8.799569557310162 14.849798015144032 12.61163059063326
Rh 11.198482810569372 11.196923533242764 15.48253346220505
Rh 10.17378978814335 16.835598275837512 11.882972319195021
Rh 14.876216296921871 9.895026277596683 13.094376685627127
Rh 12.810068749836258 12.422512631553984 10.793225273269048
Rh 15.579117249916186 13.150173579401635 9.909114366948508
Rh 10.983720072808763 15.476938656942421 9.899476993767992
Rh 12.59008666277311 9.361407450089153 14.144358066211389
Rh 11.780637714941626 11.744356960094857 13.101965268166857
Rh 14.785268481807641 10.729978682094359 10.094502271537861
Rh 12.879208833314967 9.950216802056213 11.677801994904897
Rh 8.884627513553333 10.70748513157027 14.220142894654872
Rh 11.032054572691106 13.92176492612816 11.902705883989428
Rh 13.460627852971198 14.619762033039175 9.722190979450255
Rh 10.407734753771862 8.79345717161597 15.221296402995655
Rh 8.29245045970352 12.322418496880946 12.296118462648272
Rh 13.425424314513997 7.558148721458878 12.420325691135302
Rh 13.740613847088948 12.29887781442772 8.318093660152256
Rh 10.354676630514167 9.588173947102929 12.549922362086496
Rh 10.335861456398163 11.624288597716488 10.979363436454815
Rh 11.361499486273448 13.24525256693583 8.814579988324105
Rh 11.976398847126955 10.33418670796721 9.294444440426778
Rh 13.921145019647737 8.338566975767103 9.951366345224177
Rh 9.045790053329222 13.680813942343429 10.11704030007528
Rh 8.482856379025426 8.06661713097373 13.74535367145602
Rh 7.8294666520356095 9.787350105376587 11.947881386631975
Rh 13.948218190604727 9.776938928543977 7.757295329158048
Rh 10.962560043251253 7.243561243505884 13.172832893918217
Rh 11.484250491685275 7.936633766566278 10.686604141447265
Rh 7.527541101869383 11.41426677879468 9.999446954395959
Rh 11.654885843759194 11.413690134541742 7.0323372600517615
Rh 9.487505365704122 9.515531253605738 9.869148251788028
Rh 9.449964443359093 11.688362915082832 8.390933433349387
Rh 9.009349396586062 7.458632993518067 11.318613514462845
Rh 12.04893621408554 8.06318518944234 8.144494900293704
Rh 7.140579284023831 8.766458726010963 9.622919102494786
Rh 9.7787910380771 7.120187700838358 8.857645347406864
Rh 9.94893036793029 9.338892092529157 7.387465925126867
Rh 7.475839004177442 10.283127942414424 7.6016683043237165
Rh 7.888638874145583 7.794288819432272 7.401188897103829
