47
Energy = -280.59514753 eV
Rh 7.10800452247992 9.926536695817747 8.90623060941191
Rh 10.830360279535576 6.420413496496306 7.959098147827399
Rh 11.317854204325231 5.427661982256457 10.215011220407703
Rh 11.108701318648713 11.128486353801973 10.473086359046672
Rh 12.847108364858801 7.375474282434796 9.319748745833769
Rh 8.165170420923959 12.82345623611716 8.350709728071953
Rh 12.166654148394855 7.3394025502643885 11.796925271982833
Rh 9.210868081225751 12.932612239124778 10.729270330637165
Rh 12.972898901044037 7.188324555930045 6.737082026346432
Rh 7.830995291980752 8.011813800439132 10.585700048881707
Rh 7.960590433314567 8.447238557474044 5.704818866912539
Rh 9.693415674312226 6.638237348363693 11.674692023578098
Rh 10.390856525143315 11.971277646497839 12.863576227402088
Rh 6.568088385562686 9.722129145506015 12.155879119340916
Rh 7.7750070923196475 12.047550546889791 12.75327018847425
Rh 11.364490633300836 8.953697177280429 7.763698929081908
Rh 6.30193634667342 7.299674966927079 8.653926101348848
Rh 10.437180790486593 8.572651640303356 10.123547762866913
Rh 5.377850300090993 7.753959671487185 11.022477985174296
Rh 10.506334726306985 7.569896828982755 5.679990958083994
Rh 5.014981511824777 10.108554956157606 10.140322038842882
Rh 10.808547020437464 13.072162497792657 8.676502314051167
Rh 5.741685302530618 9.25013419465609 6.903860792287058
Rh 7.73536086818868 7.573385383683046 13.043688805634925
Rh 12.539748889267397 9.431779022840658 5.566219530534899
Rh 11.162235276549634 9.553120250159273 12.547443427846105
Rh 7.719569047779405 10.892172572783112 6.576497815743974
Rh 8.789477766226312 8.16290696919272 8.0541914899198
Rh 6.153807279234945 6.746165624893927 6.246584384299887
Rh 11.975084474026387 11.328417864407314 7.205083774374605
Rh 8.742195436286783 5.884374958159766 9.347822119548931
Rh 8.81705542369305 9.859636412441843 13.542192882938748
Rh 13.068127873744267 9.527126109920816 10.629333507423903
Rh 4.087493121894681 8.426786345812571 8.622223037250587
Rh 11.760594500208622 13.534185678722121 11.025200683446599
Rh 10.188321807194615 7.716428487585056 13.90105656306309
Rh 9.807572344335881 12.552497775394158 6.381988490846192
Rh 5.675170274536554 11.797013191814058 8.107507021194127
Rh 8.753169375137427 10.406229449435981 11.02839669993373
Rh 13.718235194962453 9.59208084871508 8.115061544755141
Rh 9.558289672960724 10.662116842583545 8.499753639060092
Rh 6.799030021847703 4.936130543619695 7.972860884049904
Rh 13.219534126070814 11.854014115903595 9.401892803434288
Rh 12.929231577073164 11.499925270280555 12.212179288113834
Rh 6.7674344794150825 12.052100555937795 10.40476723826974
Rh 8.629028663372683 6.073374656179532 6.6158360620422325
Rh 9.991870343259874 10.043901811522069 5.850010623371938
