49
Energy = -292.12210563 eV
Rh 11.517006574073369 13.853618898099619 15.638561397198227
Rh 11.761205737333977 14.577998461145574 13.125871702413319
Rh 9.761911298243152 14.157402280198065 11.530505469367156
Rh 11.878997671995386 15.145017160466374 10.59035591589411
Rh 13.551401324948742 12.979638924030539 16.86018917886722
Rh 9.396866917455215 12.56437332829026 16.360466618469395
Rh 11.719645988905407 15.484907302428594 8.0966112426152
Rh 9.628631613414107 13.336228553302886 13.953616860874307
Rh 11.817103138513524 11.870931845864206 14.064263444725022
Rh 13.924437837702564 14.515530560077927 9.138136159895279
Rh 11.678344543522838 11.288831071257418 16.54107339760134
Rh 13.796242167608458 13.547433512040675 14.377148335549013
Rh 7.628382196053868 11.85483201521281 14.501488381520018
Rh 13.930432003860618 14.073670839071257 11.759776184126808
Rh 8.21105698519853 14.03492871278463 9.547695679052406
Rh 11.859629868128861 12.500592319457887 11.50417188816756
Rh 11.753039655271245 13.093864137909064 8.929835732898239
Rh 7.721150085761672 12.74563122576769 12.067663419774222
Rh 13.984273391478695 11.0621889351234 15.227850509762334
Rh 13.721594154501396 14.947780719442175 6.6290555591213
Rh 9.588284572105467 12.742714135703027 7.613026752050853
Rh 9.771911155718017 10.460800733166403 15.016922696929445
Rh 11.634862977447222 13.540484246521363 6.356294105748666
Rh 9.807056579968322 11.115355862598308 12.465894765968638
Rh 7.492080523556322 11.691433489067704 8.813690309168205
Rh 7.859321935935394 9.584470680060113 13.412865413215927
Rh 14.183424044334046 11.683692091067629 12.619876786259898
Rh 9.7097716878011 12.054694337066836 10.122946112912883
Rh 13.780674883362957 12.508658456043662 7.432924510387194
Rh 9.51354353021324 10.193253693663939 8.367658503928487
Rh 7.750293673806625 10.499825281157406 11.029653002731406
Rh 12.1154868389794 9.273593488229926 14.851901258280371
Rh 11.649838397989885 11.063109208935614 7.1663739612236
Rh 14.013049631538056 12.05344914543046 10.030862182424986
Rh 14.355289140329969 9.22213960686632 13.491851674695042
Rh 12.199526685124138 9.952812724430977 12.198310947205828
Rh 11.748001234785994 10.493629812354277 9.74180429527543
Rh 10.204274391812405 8.640797571614893 13.178533218050012
Rh 7.304030553544287 9.068838763645582 9.039871319859525
Rh 8.555669684664153 8.201272963581303 11.285000500022134
Rh 14.406256433390663 9.724226300004053 10.946110145240135
Rh 12.48325420070887 7.495870445982177 12.927532754507741
Rh 13.871540519235207 10.077840307871812 8.335012593658464
Rh 11.588649231906173 8.664657206803692 7.898971518803051
Rh 13.287107274003437 7.804080689470195 9.649949989240671
Rh 9.424053055298696 7.692982602422531 8.913657113109627
Rh 11.098245101733662 7.999186800582575 10.808071235950422
Rh 14.606038119177253 7.294100117177141 11.647464474482783
Rh 11.479064230525006 6.28858187947527 8.914584223742855
