43
Energy = -253.79803646 eV
Rh 13.762728229139407 14.34461317879471 12.390030450195185
Rh 12.278665697742847 13.285017562256979 14.141329208327987
Rh 13.723746153473371 11.837205385753188 12.70598999656856
Rh 14.907188089895591 12.807005434485456 10.603300365727998
Rh 14.823641107290959 10.106966681025773 11.17195071769833
Rh 13.816503932702691 9.380031836285601 13.474417609500266
Rh 10.908806204084643 14.723744717998581 12.226364970224452
Rh 12.447224518476414 14.019952451995925 10.27650006149504
Rh 11.3973950629533 10.708295964377488 13.848900268592699
Rh 15.128000238653254 10.952332149988928 8.702793846386465
Rh 13.763130217911911 13.14203907626645 8.119718323320694
Rh 11.357663411685255 12.286239149416195 11.753738309051005
Rh 9.847430896654684 12.877671195591661 13.893606744761895
Rh 12.88293927263847 11.53210649032171 9.861886977430784
Rh 13.37321395186419 7.557051975266468 11.507308129778371
Rh 12.171386482967835 9.783733862921443 11.53950535392409
Rh 11.638307974875485 8.090967172494159 13.434598858092702
Rh 13.469306495109171 9.044384545255177 9.283089942525498
Rh 8.65601748891136 13.525048689288466 11.756397376298553
Rh 9.98363990054538 14.55575174469713 9.719578272680495
Rh 11.254981301389158 12.867240896362016 8.104321040869861
Rh 12.738579930499357 10.845384225677329 7.394323211674268
Rh 9.546930640704248 12.086265489246719 9.852450410658436
Rh 9.329940469289935 9.04600455110969 13.901149543053522
Rh 11.032013899816086 9.910704858977587 9.163526925075017
Rh 9.130384557835074 11.008875406211327 12.339928820691586
Rh 11.519966493968136 7.422476775392136 9.611316294548184
Rh 11.050771810842146 6.189987078815283 11.779608309119727
Rh 8.865355308643176 13.377794677243015 7.635339758242702
Rh 7.333627766112616 13.786083914291691 9.652057217927227
Rh 9.971341857359612 8.580490589090834 11.344063089467406
Rh 8.686968046552424 6.836696108321341 12.717383934716747
Rh 9.453419910827007 10.846757709749333 7.405161012939037
Rh 7.0622331610940225 11.502833519087126 10.910866061839958
Rh 9.103531015849617 6.586340295882911 10.07122082672925
Rh 8.519765716435566 9.771426753426763 9.615056173212443
Rh 7.472622887237294 9.10145932188757 11.937432236133413
Rh 9.499436790632783 8.136600710204302 7.984339494385692
Rh 7.0879940593623445 11.60152383110049 8.3205890210955
Rh 6.748286896745688 6.9103491651214615 10.993003378447
Rh 7.304371058258632 9.33933968317644 7.250742816795407
Rh 6.143986319973609 9.138317239065056 9.650733694830556
Rh 7.1903147342832945 7.096994133667343 8.466031395171136
