41
Energy = -239.41044969 eV
Rh 14.334068074970443 10.982646550489273 8.888813654884002
Rh 14.223399844218545 10.434008513404084 11.469330948235973
Rh 14.531638178255964 7.988318067065926 12.1352183388671
Rh 14.532216036172697 8.49023942088739 9.6322885808449
Rh 13.591948949137278 9.218607242959841 7.204856266648572
Rh 12.59270386199388 12.120260309507811 10.324441268585511
Rh 12.639297293509406 13.804311203028957 8.435901397846973
Rh 13.347518323831316 9.634870512105515 13.952433360793242
Rh 12.211993863793598 11.414741862516973 7.416750465314957
Rh 12.528818284721043 11.805718448655213 12.77403575757942
Rh 12.574393997739541 6.97511110975862 10.853822681182823
Rh 12.27211734531743 9.613814440675272 9.518679054813216
Rh 12.6716623271896 6.885235556215933 13.40573856621203
Rh 11.176858772085328 14.23179231787664 10.72462912384814
Rh 12.523565000265702 7.2580510589394205 8.385760077309804
Rh 12.03745515518647 9.180045344264004 12.005057137584583
Rh 10.932364054795144 13.438741613311148 6.521204382757906
Rh 9.552474218091543 11.170017332263727 6.9235190115222744
Rh 10.171373217384831 15.148916211939904 8.548559190198398
Rh 10.434912804899085 12.612788387542507 8.90355408930939
Rh 10.772375280812314 8.210250598154353 14.310276541672822
Rh 9.563939511182046 9.420896834590499 11.815787808683028
Rh 10.906909490083168 9.094953775790527 7.390714496998732
Rh 10.63989872600872 10.623820983204654 13.882790539113214
Rh 8.478804740440797 13.592353017646795 7.414508287065702
Rh 9.811269853449518 10.369828030427982 9.49361118560884
Rh 10.195386551313325 12.17367026038605 11.795106598914945
Rh 10.277694885418093 6.981009158614775 12.110899519247196
Rh 10.320155605435641 7.7637199545135935 9.604802570730833
Rh 8.604052057519834 13.818765118740645 10.106864695214185
Rh 7.5161938640272625 11.535736557111374 8.490455263173573
Rh 7.910490236310155 11.208496801656167 10.948544222259667
Rh 8.02673182791 7.860723812468419 10.701732950985905
Rh 8.33406482392023 8.018492492134504 13.581700710210548
Rh 8.287073831917565 8.945587320708272 8.296995851518759
Rh 7.716977772566695 13.210605692527253 12.400911091364122
Rh 8.144832496671727 10.756011468137268 13.463930598973178
Rh 6.174538735907298 12.883194001845684 10.243414573294977
Rh 6.37684783283499 9.647781847018383 9.875839217059305
Rh 6.424917044951673 9.039203733761477 12.397573392605594
Rh 5.780184990818294 11.449243808975066 12.39858417001291
