42
Energy = -247.77095287 eV
Rh 13.295155374799903 7.769099901369381 10.725219388817566
Rh 14.642259461764986 9.09854974689533 8.485356781319679
Rh 11.938155663336154 7.125813584928278 12.890814777838898
Rh 13.323710787299934 9.31920614413496 12.837291389550197
Rh 14.278872162890403 10.161581670314039 10.685842108465655
Rh 11.790579954773493 6.701801232062648 8.961495299309828
Rh 13.205876506178896 10.967443353826548 14.80345058446112
Rh 10.164925444583766 6.775007223245261 10.839185126219219
Rh 13.644144191920168 12.069390042239139 12.343331944361863
Rh 11.239532234723924 9.046694780437598 14.512934696416407
Rh 13.760360741804538 11.543480364438356 8.569147857991727
Rh 11.594434092982803 7.923016908589357 6.744949364424551
Rh 11.116673446937124 9.03133936726578 11.374545479550914
Rh 12.211750709697677 9.2022429859156 8.869574086970802
Rh 11.980833623183695 11.312283185350095 10.426750421059623
Rh 9.449703274457544 7.84757144613064 13.128701082071718
Rh 11.417569065576567 11.087343492301034 13.021571687650068
Rh 12.748024990865899 10.20868357708143 6.621398101546207
Rh 9.595581760621805 7.871208167029077 8.298950911818322
Rh 12.051984953438007 13.289246188342789 14.204575838182048
Rh 10.695428704079776 11.418509859093493 15.485177583202152
Rh 8.964678101501523 10.31749907693233 13.916893473584508
Rh 10.108949948941241 10.07787471185335 6.71931035707344
Rh 9.511109195567064 12.871405874922914 13.570500400134447
Rh 9.416394082067258 11.170195477827228 11.529462375147947
Rh 12.466216871960398 13.721124766434732 9.415791607555937
Rh 8.532676382947392 8.692874187503888 10.913067663654594
Rh 11.478627313019896 12.130956000710267 7.542017335654303
Rh 11.334963585884145 13.557966971644241 11.79119938973531
Rh 7.261935451684821 7.754123889860622 9.017859549708497
Rh 7.684775976366219 10.040446454723124 7.942357785279949
Rh 7.075204190741299 9.048879511573986 12.874941325417005
Rh 9.817955177711287 10.191552777462697 9.23648584304901
Rh 10.072442698419131 12.764821029361563 9.607771427527409
Rh 7.170180803646514 11.634357216672935 12.352179548792241
Rh 10.498652269770993 14.39906901773185 7.6568711124021425
Rh 10.354330081327124 15.277655211551766 10.134787675944516
Rh 8.592321480451858 13.815099400065275 11.422367089002352
Rh 6.510335841033251 9.928287746042914 10.349699818963726
Rh 8.880014207367434 12.258353088550171 7.363714731178624
Rh 7.601854208055854 12.044927964543684 9.69968509891151
Rh 8.174856888747135 14.39042740519308 8.905465066641641
