44
Energy = -261.47766545 eV
Rh 9.331248038651838 13.849850499439727 11.440596110568572
Rh 11.021023161159716 14.85338010059232 13.23056739052977
Rh 11.920948007232806 14.522408244477457 8.71069935504959
Rh 9.319997727728701 14.598004442060825 8.92382110301279
Rh 13.060888630422252 16.03650536456953 11.831084952420888
Rh 14.114879611327705 14.720499741522259 10.013599594173517
Rh 10.44222963368142 13.130737038065183 7.085291321790044
Rh 10.835298863083764 15.775698311074072 10.676072011815343
Rh 7.903042767328498 11.788367711240735 12.07988280585614
Rh 7.959189488099087 12.51823270637356 9.564134685059148
Rh 13.002206333268223 12.968567156024282 6.955699023544484
Rh 9.28288286837646 13.02230993345603 13.911859595649709
Rh 11.87776390897665 12.696486757574231 14.320763290491161
Rh 13.367342193258803 12.34479747782914 9.344901913927778
Rh 10.559023507005163 11.604941129157284 12.16150516236807
Rh 6.559139791583796 10.451391686212903 10.19740850087593
Rh 10.59264508575654 12.412535741634517 9.561899230692466
Rh 13.698416409977735 13.897256417768123 13.167027967958711
Rh 9.15180758531025 11.057311693313805 7.7699763696388615
Rh 11.808169357417057 10.886430715315623 7.707693898708052
Rh 15.028287890862003 12.680291919445652 11.231154095393377
Rh 7.702040136051503 9.140628133685498 12.075431834819522
Rh 13.15394233776574 11.429242851037264 12.430463974084299
Rh 7.760906635804766 9.026709831532703 8.507933612774186
Rh 8.980417771160484 10.357740070399469 13.991402148630183
Rh 9.202477675992814 10.318549287167277 10.28017027740332
Rh 10.268008790081145 11.541938996872787 15.826629635393974
Rh 12.072946745722222 13.620045325517745 11.266700315235406
Rh 11.864478851674939 10.22658367522905 10.30530091642779
Rh 14.399751269013395 10.635821603781139 7.84430081437203
Rh 12.982236493444997 8.708582950151674 8.479330591667555
Rh 10.38968442400106 8.961999526413035 12.18530688840316
Rh 11.695643120976555 10.149749758007527 14.197269586209078
Rh 10.390791905453078 8.83648574296428 8.430185505344312
Rh 14.441445531660763 10.187131113005066 10.455548293918953
Rh 8.977884423021138 7.70990846821151 10.334402038192323
Rh 8.835800640963814 7.693528607947919 13.849509906215633
Rh 10.113576119264653 8.869626431311831 15.738218060402763
Rh 13.05065808287043 8.870580923234721 12.292216997847639
Rh 11.643506391985342 7.542343017557945 10.323571068571798
Rh 14.223392761033697 7.6078235180130065 10.413882911816202
Rh 10.156314446968556 6.351062266251214 12.127298071306058
Rh 11.528617570129457 7.559218008352873 14.038486365451277
Rh 12.79207595776825 6.325096901321624 12.22673809473908
