44
Energy = -260.12169805 eV
Rh 8.688270526178128 12.65715591283515 13.758108865610112
Rh 10.566950993863259 15.110798356354852 10.29013184265746
Rh 6.442992665726953 11.685399462662332 10.297516147099813
Rh 8.461295840140446 13.523978891500397 10.77224046563664
Rh 9.537005301291947 14.022765987701968 8.309604976962778
Rh 7.84506030893338 10.533722728077349 12.604266682994819
Rh 10.41296915609673 13.998888106204637 12.515637052660834
Rh 12.79859608145772 14.083081806265666 11.064295118350815
Rh 6.653070877332779 12.850488388626397 12.420601725712125
Rh 10.943265592498507 13.082534390828629 14.833144168949572
Rh 8.824567176619341 10.904210691984563 10.414654180723849
Rh 6.454118702916049 10.138065176991585 8.246616092653824
Rh 10.735189534522393 11.80535088034048 7.765127190570287
Rh 12.161391674720397 13.8183735616685 8.568193348727638
Rh 10.152763791673149 10.631001293760342 13.722383510670966
Rh 10.08679794017451 9.529713596241299 8.651041649587231
Rh 10.824890207836884 12.476914499730816 10.283408727472578
Rh 13.318119167541443 13.148710150316617 15.842433771905544
Rh 6.915423161805967 9.125072158312022 10.543626265121503
Rh 9.202361230855846 8.389542302076487 13.278164428851808
Rh 8.12748840794272 12.042378531731071 8.309894939182305
Rh 12.074793671736654 12.087550776703367 12.708986653601004
Rh 12.844218779413918 14.354678712662386 13.614032867201036
Rh 8.039211237456103 8.143510354088294 8.51903837924807
Rh 11.096598541421828 10.092347737126682 11.335881794013165
Rh 8.62550842858822 10.121781888415656 6.791141863506137
Rh 13.161714505585858 11.367291049445493 10.517102141788396
Rh 13.42982719593264 11.983120905908875 7.347668503878602
Rh 14.521032145824918 13.148362411436059 9.319220818788988
Rh 12.490699622970107 10.984413251203963 15.052759600475875
Rh 9.332615392253405 8.223626954731756 10.804366228615544
Rh 11.530691330066134 8.656612947005552 14.470834983061795
Rh 15.010832800889924 14.161960766810306 12.151829540030164
Rh 12.5276177610371 9.998901397660168 8.49010242834061
Rh 14.393242255500079 12.245481128031486 13.711913110540136
Rh 11.58067368331389 7.791007810102514 12.109225141784664
Rh 15.431121101786283 11.867472880118312 11.361239407549625
Rh 13.928576172082266 8.977396118017145 15.324756891404574
Rh 11.547711205332627 7.71362107571815 9.5304654252423
Rh 15.07268875716811 10.49575024928026 9.1699592880622
Rh 13.360150833600505 9.594115743710978 12.905632254542109
Rh 13.557051438095998 8.766894682520071 10.50646560132866
Rh 15.630461786994179 9.437335857229607 11.694958714809225
Rh 15.656544801489888 10.22479021653044 14.067498998753011
