46
Energy = -273.17007386 eV
Rh 7.167748331304696 9.65603639150155 4.780082923267482
Rh 10.69224325262815 12.025049733439484 5.333566771626803
Rh 8.06738142317098 11.843640252681912 5.690162708084395
Rh 10.881972799205052 7.573198083347774 6.319984382031065
Rh 5.876097408621732 8.339345930732165 6.476187340103761
Rh 9.393927106817006 13.798912571139741 6.750890409778785
Rh 8.399290784489656 7.455155644353236 5.525385200938331
Rh 5.548272123432742 10.990994018315979 7.1967983383560545
Rh 9.62369779602841 9.641527857688057 5.650197369157098
Rh 11.699069468798207 13.10863880981219 7.831751912033266
Rh 5.584060084141928 6.423352341743423 8.124298370160057
Rh 12.51041618976571 7.7095318016918535 8.334826572207453
Rh 11.839148261458654 9.826490665358447 7.034846135264721
Rh 12.509532306416817 5.354629080082886 9.600599359113724
Rh 9.954102921718263 11.410597394668237 7.605099723162457
Rh 7.361968328820724 12.707391985799774 8.034544105059487
Rh 7.762060854361309 9.926384461787661 7.413069379502541
Rh 5.08387078556514 8.964277537669606 8.779864340197332
Rh 7.890677008211906 7.256854646649785 7.851572951157829
Rh 7.847309293878641 5.082572008412671 9.336222480838307
Rh 10.250451053483522 6.1764699779911325 8.380405341663476
Rh 13.265727232615655 11.181582642175366 8.491282163516635
Rh 9.526575344413423 13.61405842603444 9.334267554941675
Rh 11.224136809272354 11.68673550706418 9.89532442849695
Rh 12.586662711155451 9.60911448601286 10.292700129901936
Rh 9.902564082399966 8.890776260581005 8.526630049535877
Rh 6.172931841728224 6.865822005311579 10.530549489929081
Rh 11.256639832181024 7.437073240285755 10.468792964869934
Rh 8.580167280819612 11.22597130284741 9.681422672811141
Rh 13.782184312379625 7.357267799467 10.681562561293529
Rh 8.787909468304292 7.16526414141526 10.32732593250609
Rh 10.15328402871385 4.987063336613629 10.747673942804026
Rh 5.94213985885373 11.223194768319214 9.746569271076067
Rh 7.390295495243076 13.176668846047779 10.731410519453568
Rh 7.335551125713264 9.046634703457668 9.79539014115905
Rh 11.706402639914488 10.932652863780856 12.342737262465178
Rh 7.9002592246024825 5.459705219669258 11.974771616735524
Rh 12.281831537913357 5.798054045031594 12.185661878675736
Rh 9.811452451897601 9.52914377800326 11.112873831523554
Rh 12.08294617283197 8.436035992888778 12.602603588760234
Rh 9.532998413558435 12.182795251661606 11.841309050554429
Rh 5.335200651651808 9.15722705242095 11.412642546836627
Rh 9.964603541211257 6.9261492525821255 12.676944492446395
Rh 7.410802774973203 10.663960905560138 11.949086978705902
Rh 7.672733765086223 8.150766372718627 12.421429739203814
Rh 9.823996024861874 9.398524809797198 13.55197528270771
