47
Energy = -278.70886198 eV
Rh 11.881313057852187 9.14220641978105 6.454240125925974
Rh 9.645918588235446 7.609252237352174 6.459436942735001
Rh 9.667021404967516 10.278284810144548 6.219378327784604
Rh 10.446319985482422 5.2683805254425184 7.644952661775081
Rh 7.2128835283445625 10.03146100006218 5.949410888025568
Rh 12.05230335397224 6.5329142706317915 6.156714181236625
Rh 9.36046242089676 11.994051287442575 8.87799015881658
Rh 11.541092433578987 11.497605169996108 7.646458206303985
Rh 7.917398036473773 5.542219005514814 7.099497844260763
Rh 13.226590300089772 9.671130941532454 8.644847456102331
Rh 8.144257499317002 12.325745178268537 6.737522720238115
Rh 9.318429353589051 9.413068535257423 8.483994353197826
Rh 7.290937731665777 13.394779291783241 9.082875006018194
Rh 13.949127545869828 7.64344494600773 7.452609276921551
Rh 8.999794244197792 6.892999322044285 8.902953611533418
Rh 12.880216714092944 5.450094700880445 8.386972753950102
Rh 7.148849234094651 8.132852248903008 7.561239306850876
Rh 6.98281454850808 10.694795981504143 8.369845989797751
Rh 5.18222403143962 9.34618566614136 9.58928631277693
Rh 8.72661056750303 4.469170094158624 9.40490814273107
Rh 9.478209706253875 14.325086068558024 8.074921113150419
Rh 5.515723730178784 11.784737937021347 10.09859333299884
Rh 11.385116533185968 7.75710971711787 8.467089933809486
Rh 7.344903053038075 8.383342845499238 10.184460085292148
Rh 11.03132913706766 5.8804066990824335 10.244345046035468
Rh 11.4109467867677 13.522690344219761 9.725880044108495
Rh 6.610442846456625 6.08313625919195 9.412177633521829
Rh 10.10818423132814 8.28355205654742 10.758416321381203
Rh 13.392483470082217 11.89478466858352 9.596049446505702
Rh 11.184663140795095 10.54052042604962 9.998574043846231
Rh 13.315003491289817 7.429252491251266 10.036616331446877
Rh 9.075354298754956 14.515932222269349 10.630473402956461
Rh 8.626755577516825 10.438318088207598 10.787811917677258
Rh 7.350570875154706 12.587996559873972 11.52858867002477
Rh 6.206718805034151 7.334671926222388 12.031398069327345
Rh 8.506839310619595 6.292771597772033 11.379730088125978
Rh 6.434645286806779 10.121115715592829 11.947250191718227
Rh 10.014024508726129 12.363232833187924 11.492488984098525
Rh 13.16492515726613 9.73042887738871 11.314075533586417
Rh 8.441831392494676 8.598177221407404 12.716668099607741
Rh 12.00420038469864 7.648185415472193 12.179631356600764
Rh 12.510953800708092 12.242031447252147 11.93002983868217
Rh 11.203080835772516 14.471180241853494 12.289176264543311
Rh 10.879393626807252 10.037474532201252 12.629155795822562
Rh 8.77563539140561 13.862130472302795 13.168584446175382
Rh 8.608420703919375 11.15185972340206 13.339005563859764
Rh 10.855512192406998 12.399664834328814 13.924107032819764
