41
Energy = -241.40318029 eV
Rh 15.187523997698829 9.63282102740096 11.71267763382755
Rh 13.52956441832863 10.425329574526698 13.426601708306414
Rh 15.522446967248571 11.967122905563999 12.908321663306838
Rh 14.134926133158997 12.323570644749118 15.092719778178258
Rh 11.849577412672934 11.231009980533011 15.208700611939614
Rh 14.278216565850302 7.482013016036197 10.53214937408945
Rh 12.556186676381305 9.109975792532142 11.407154082967143
Rh 11.144643980072049 9.384403376819096 13.585371588978306
Rh 16.133085244012104 11.583350913592591 10.358586248845425
Rh 15.671457166577804 9.343645316998202 9.213783430180174
Rh 11.729808094609913 7.119661967673672 9.854838137792896
Rh 12.005157324727218 13.807286415934536 15.157679112818213
Rh 9.497411163556814 10.259361145664547 15.320918810748534
Rh 13.7081251203167 11.720556452193355 11.129522025178979
Rh 10.5389576461678 7.415549454234529 12.022910894659882
Rh 11.244222921520638 11.776717069231632 12.542373463532485
Rh 13.204508382961397 13.38030690563384 12.975904502494204
Rh 8.78125704331928 8.338154726741125 13.564820953284126
Rh 13.207748533192106 8.989604183285257 8.877758735499107
Rh 9.825246227845348 12.706560333724251 14.487048635093664
Rh 8.683939731596144 10.91388849640705 13.030695794201565
Rh 14.19676223588509 11.388507438414544 8.679929190736674
Rh 11.755665469785221 11.076763317767655 9.70283772773965
Rh 10.055815736800882 9.754718771959794 11.104664762355227
Rh 9.052670110798472 7.634205958861567 9.921855512303354
Rh 10.857866937262619 14.395999276045304 12.821400039562198
Rh 7.578657291166236 9.13874038524313 11.47733251704816
Rh 10.565289670319967 9.071186326056855 8.555635136308158
Rh 8.386667779501824 13.420075026225332 12.5523070431319
Rh 12.219521120013122 10.500433685881843 7.115891673121428
Rh 11.846112907833808 13.564678325441205 10.528138396831737
Rh 9.557955948021172 12.302298546807245 10.550971443559645
Rh 7.134940900952862 11.631820965300827 11.037286319359128
Rh 12.295024496702121 12.958551395354862 7.929569361101099
Rh 9.980781367985834 11.56943457546235 7.901177186278658
Rh 8.26671230412582 10.141474452464545 9.184745719844189
Rh 9.43533225163011 14.942861850683654 10.811341812035359
Rh 6.980167728116263 14.192505477426366 10.609711592079465
Rh 10.19345328540376 14.05619189637307 8.53833568891712
Rh 7.824520483958021 12.700098989538098 8.724577765549672
Rh 8.08085337119253 15.278442256798273 8.608742853501626
