49
Energy = -294.20231092 eV
Rh 14.150047345505492 9.449060833614926 7.917890111162423
Rh 12.954904811099226 11.513655128473616 6.9137469635413185
Rh 13.510029355459803 13.746890134445932 8.097499380781814
Rh 14.447167307014682 7.870408493772179 10.445534986269482
Rh 13.683474622183896 11.516560224026813 9.43283563314574
Rh 12.928754881922439 7.058349434121212 8.3470286518967
Rh 11.709052677244514 9.044526324114504 7.120700460161127
Rh 13.376057152890445 15.12790095944314 10.743046146188913
Rh 10.38537390414715 11.167594998522778 6.1259428343023075
Rh 11.048248004934976 13.491670466707399 7.30435279066423
Rh 11.657582085819811 15.639123751727583 8.702320815280201
Rh 13.95289328324709 10.091720453549584 11.712858575975488
Rh 12.37998177451911 9.100034683610302 9.68279463385853
Rh 13.558646234776043 12.763515185395862 11.824133715836902
Rh 11.066389869582522 11.166163953256023 8.552290200406334
Rh 11.737489104521128 13.423379028939774 9.862362331298078
Rh 13.65833509619615 7.772125172451658 12.908100816428096
Rh 12.1457829955705 6.72485599081823 10.839041413674142
Rh 14.247176318331308 9.878556165086295 14.292391029751283
Rh 10.443296974276173 7.460039043854516 8.890134551094437
Rh 13.811374222546476 12.840794251844656 14.41646425893006
Rh 11.689843411028185 11.15382588039476 11.041973486849644
Rh 12.62713633085522 14.791421109492362 13.199104166941666
Rh 9.146569007028642 9.565584963660914 7.738180440555538
Rh 10.864860361016909 13.172628077719013 12.399912143870155
Rh 11.497191051159618 8.877802732694226 12.219696028627878
Rh 8.753553687305448 12.203414242339104 7.849906319866043
Rh 9.826965791847963 9.569487652995882 10.276103902320552
Rh 11.236187622989387 6.648139743402296 13.368340809249986
Rh 9.583273494877602 7.238574496710582 11.466945832295854
Rh 12.18022444993558 11.120254755086668 13.553380834297178
Rh 7.983807367244736 7.994969396739029 9.511875321839987
Rh 9.40103514376666 14.492816181906177 9.182088309280298
Rh 11.940674480472518 8.801115513804803 14.81824897047688
Rh 9.438629974503739 12.189838549645385 10.386315205450934
Rh 10.847011119026295 15.525834372518904 11.205601015698626
Rh 9.989895441297719 15.12982173179486 13.722936622258091
Rh 7.4925724882927565 10.591916906436975 9.611326525564861
Rh 12.526747521259322 11.065333047587815 16.02903804499704
Rh 9.704174757558038 10.794324099917617 12.624422086010195
Rh 9.460531453699192 8.47233735632849 13.832505573779548
Rh 7.759710653598823 9.186015824369541 11.865662714275388
Rh 7.209292503008692 13.219609379951207 9.73148575147123
Rh 11.298199430569367 13.156557549258679 15.00187141454941
Rh 10.116421716004249 10.746121731710248 15.187902879949624
Rh 8.55021964636058 14.245736969010428 11.760287313710792
Rh 7.369714975919682 11.825220002811289 11.975714613159886
Rh 8.817165495692256 12.841035851616196 14.013852453589026
Rh 7.7408802644396575 10.437884864867032 14.198398580963412
