46
Energy = -273.3501804 eV
Rh 10.051187918420792 7.220109682761435 14.206899742733647
Rh 9.232495534886537 5.883324456916304 12.201922539807654
Rh 11.44386311593709 7.2084809017971265 12.006115202442018
Rh 7.73561103995792 8.01017284782175 13.392683637820062
Rh 11.785849550852422 9.058805812453132 13.88389046652055
Rh 10.109054360638673 6.512732467329123 9.843223116039896
Rh 9.36424749122779 9.736465964729083 14.69826085032883
Rh 8.058793205152512 7.701083499918338 10.902666157826435
Rh 13.506346145749518 8.799863752585388 11.868795813501837
Rh 9.804092233999706 9.031113138580123 12.220952473543962
Rh 11.388511917517171 11.222502828056632 15.375812227404893
Rh 13.267247975577318 11.035098595676198 13.457501846593292
Rh 12.314154233310663 7.950378493444582 9.686243623812079
Rh 8.259238039112928 7.577301474896541 8.267221743466761
Rh 6.131871609037014 9.154792268837836 11.5546254067926
Rh 11.765725350796437 10.305268922962247 10.85917693841305
Rh 7.662016181267024 10.582843954110048 12.979673193769443
Rh 14.125976781036446 9.651231949768688 9.298144037257549
Rh 9.95180621439432 9.044006291577151 9.576704402204975
Rh 8.984573482129623 12.325136035050376 14.403343957922763
Rh 10.745371604437484 7.630028131803934 7.566238169430807
Rh 10.767634278252437 11.439647951514319 12.951572259518938
Rh 14.28128079893865 11.352818545465889 11.223378695959784
Rh 14.41685088570563 13.315945945234231 12.896704805035027
Rh 11.963427222115158 9.832170128731782 7.738670378012382
Rh 6.477333275734226 11.574745597673914 10.81460416496923
Rh 12.169904083491335 13.3381920457935 14.032517612981616
Rh 7.411181903883931 9.702773837761216 9.339031817739963
Rh 9.065252596945019 11.16330295935046 10.934227980191858
Rh 12.950485132078555 11.904424721088386 9.087931730957916
Rh 9.217548067421681 9.972333004127146 7.355227478125957
Rh 15.534808895573628 11.97235233999249 9.03374046964567
Rh 7.901797107440817 13.104806353282115 12.251444880377646
Rh 14.27605749623654 13.842480482869696 10.392460226104259
Rh 10.179346602041191 14.1553332426705 12.650197935919753
Rh 14.1471516076932 11.054181985683089 7.030280317337909
Rh 11.967058561074765 12.894251178991208 11.225791100626196
Rh 12.69414051155816 15.119596326625045 12.063980461394154
Rh 7.949040484484288 12.159176262121893 8.726527152156562
Rh 10.41628616633747 11.663418952947858 8.823584209009818
Rh 11.894205044648134 12.329643666724085 6.816387384725369
Rh 9.488756652065478 13.631963557911673 10.230850490782204
Rh 14.014830787314398 13.778250054167083 7.7871088237688655
Rh 13.157182713801257 15.886248183018365 9.51652452316133
Rh 10.791775500835653 15.757059908008138 10.530775273088773
Rh 11.549754927579983 14.103880649961786 8.720728588224386
