49
Energy = -292.57480438 eV
Rh 12.825765061791543 8.826908437066091 6.198300894458306
Rh 10.716398217384967 10.22389800178754 5.504878723728491
Rh 10.419116910373745 7.738474957499376 6.116969158831425
Rh 8.31141938126898 9.33528655963461 5.920090142796761
Rh 8.180885573599813 6.933693094488446 7.013523976136596
Rh 8.606233245311417 11.89569841056961 5.642537054905676
Rh 12.98196381289212 11.210665445552424 7.283924965355864
Rh 12.336451578570623 6.812266958828821 7.823721303955669
Rh 10.930885102256804 14.360837560794389 7.398055272744281
Rh 8.461030989752595 5.135265933051747 8.990315731411398
Rh 6.329090721600669 8.624057417954608 7.580054389820998
Rh 7.05201281319252 11.158053598463649 7.4298535136776405
Rh 11.157245309717094 9.559093338403299 7.947410188675877
Rh 10.464166730237146 12.009177561514194 7.226497979024363
Rh 8.627196399079809 9.449311143827106 8.425901720879311
Rh 13.409937683029586 8.956829980479066 8.804340451688745
Rh 6.0091965718267195 6.039948132265984 8.107707243041743
Rh 8.45305460180289 13.3890193882878 8.015081435528801
Rh 13.007963840547832 13.48832344087633 8.601981967358027
Rh 10.250430232060124 5.333354666483654 7.03557494871918
Rh 4.954652198093145 10.454798472137076 8.679069023211941
Rh 10.791887479511074 14.035400219013818 9.834007594447455
Rh 10.059875554631558 7.367608132365619 8.74744671430403
Rh 14.188621956327497 11.356779765117007 9.57886102321728
Rh 5.075216866918821 8.031340821877373 9.74987230877244
Rh 6.513390864430883 12.34617881109603 9.63930514384691
Rh 7.5489855090281255 7.446091668043436 9.667805223931966
Rh 8.920347141231575 11.571826044068025 9.687270359243676
Rh 12.811651775984995 9.825171148679148 11.1226195168123
Rh 6.372545034488014 5.502225652502044 10.652594523329267
Rh 8.388524918653388 13.898522660683936 10.644208260043088
Rh 11.116882248228661 5.115473187142592 9.452697327171895
Rh 12.77238565432489 12.85599095119182 11.252081404156245
Rh 5.745285764127027 10.239831040471712 11.030779422593028
Rh 9.543370814522037 6.346027475784273 11.02248249713883
Rh 10.397220980348813 9.416956996514877 10.457146905970756
Rh 8.029103097321741 9.485634534619543 11.09969457158137
Rh 12.012156779467512 7.409451316319547 10.47959300637698
Rh 11.531338933892172 11.586785202762565 9.551618055639844
Rh 7.802982557129225 5.660188202037115 12.69965505976861
Rh 10.284041023163699 12.363075743209032 11.75778106921738
Rh 6.392175039678142 7.702926463166251 11.998635886649707
Rh 7.647021639685415 11.9245072809214 12.02402196609355
Rh 10.602425079635955 6.288171375870989 13.248231111792425
Rh 11.967264251297916 11.143937207453428 13.134643247144407
Rh 11.348955717892395 8.60125468589181 12.787030297467046
Rh 6.996239636109466 9.829000822707206 13.381101080302303
Rh 8.825122541887676 7.96880224118561 13.04216841591121
Rh 9.512856235859502 10.428849919506883 13.193829991292914
