47
Energy = -281.04459938 eV
Rh 14.35672806947166 12.993605578967871 11.079768549954082
Rh 12.442624643171133 11.862676182261845 7.139867201516604
Rh 14.384897571533294 11.47963581894329 9.022931413317856
Rh 13.265148058412281 12.81225846668072 13.606948194374755
Rh 10.045085435686563 11.33815592288312 6.3495744871928235
Rh 10.416843118896802 10.53123177424943 12.778273974249991
Rh 10.001220811696028 15.369522565185404 12.355236270100633
Rh 9.657277112280957 11.76710856632418 8.773679399615542
Rh 9.799131215245408 7.926459409993211 12.891326973906377
Rh 15.070690944121601 10.337746432819205 11.235450205115912
Rh 10.736470455668801 13.715428838784273 7.563467989044437
Rh 6.685874941601383 12.144640652603595 9.945118472016757
Rh 12.29418661743238 14.336806009713937 11.767971996871307
Rh 7.03216473391889 12.038945080853996 12.703207714023003
Rh 13.841241238279524 8.975736930755689 9.492455905376392
Rh 13.933770737059024 8.154127222422575 11.991990748684474
Rh 10.011416875235952 6.77640555105255 10.57821987343788
Rh 8.60881833176358 10.895372899171296 11.022255879852388
Rh 8.409643739748496 13.650146358462596 11.246203146887854
Rh 8.139035181371145 7.221946265214806 8.80249085467976
Rh 7.912165856933357 9.647219757052099 13.335897589697868
Rh 11.638921042262963 8.863540423172386 11.177126087644714
Rh 13.059828453474205 7.493492237806224 7.596166803420484
Rh 9.827062448077783 9.255395230435555 15.07851890548013
Rh 7.569900072694197 11.54102354998572 7.421286529241464
Rh 7.263787000343654 9.721177807260922 9.090684607703162
Rh 10.346460621753888 14.722517982118722 9.878454848892362
Rh 6.104465981714143 9.998421615343954 11.47452909734201
Rh 12.789893695646702 11.143536923732634 11.819341295783397
Rh 11.754061248223756 11.135062285208704 14.845156341262209
Rh 11.491336300203924 9.442462752300282 7.210456717562368
Rh 10.759466813582346 13.18253866438072 13.52272283586355
Rh 11.855584243243941 6.476985675710711 12.413213248355065
Rh 12.516134986311306 13.315923176117748 9.343939118468732
Rh 14.091842855538511 10.2402872114505 13.749792084181294
Rh 14.049467760891504 9.840551671310292 7.056166771973803
Rh 7.976845312382311 8.291598640284453 11.124928112456072
Rh 9.019713353812897 11.640812778805948 14.632967454985836
Rh 9.826485719249249 9.223014718444418 9.425008542638349
Rh 10.700738955410296 12.461194566213017 11.037979143193331
Rh 12.569996242099494 6.789781300409199 9.979363437822737
Rh 8.351896145623272 13.925714576508074 13.763372273225658
Rh 11.952139838841772 10.745983721975767 9.398380768771982
Rh 12.090962722962102 8.75712930511523 13.767664477760915
Rh 8.8760990158629 9.165035844613824 7.078350702565518
Rh 10.583709958927738 7.1852098474184025 8.048982251526011
Rh 8.228878690557618 13.806546378701487 8.723225871183859
