46
Energy = -273.59565876 eV
Rh 10.64395295788929 13.665305564260697 6.136476098451599
Rh 10.91769708918102 14.756030595978805 8.494114717117917
Rh 12.988977819138116 13.662300436572856 7.399464245738181
Rh 8.7587876923488 13.301523922823169 8.025020816541666
Rh 11.039770510762816 15.568124860425574 10.90363131167488
Rh 12.987791582609711 13.974023842945762 9.986483445030636
Rh 12.153248350230816 10.681287935594412 6.426856793557874
Rh 9.422060216707095 11.349085466506766 6.338908766385499
Rh 8.784307395179122 14.971565491917817 10.02110610540082
Rh 11.073290212204657 12.169298019671244 8.088436698058889
Rh 13.457109080227381 11.420076878998584 8.509663774512218
Rh 15.055193915477162 12.257777175809581 10.289891673152416
Rh 14.294186268503417 13.635116803017409 12.285591035874898
Rh 11.815891583088137 13.929648462275916 12.541397129959183
Rh 8.725611794707316 10.810887577613723 8.755654759328175
Rh 9.057180127699034 13.433921619866569 12.53798490942445
Rh 10.474896840210157 12.97633036300604 10.426066187423096
Rh 10.3393663098636 9.21388564471923 7.485349028502338
Rh 7.7421182207339045 12.666351676941758 10.324282711715625
Rh 12.665975583456017 11.699410184747988 11.179645537578855
Rh 12.834888251698336 8.93011703247856 8.257304907165889
Rh 11.110724591420691 10.17887869827006 9.752057323788332
Rh 10.507768744610582 13.563272564330678 14.716491329803034
Rh 14.146514540780185 9.799577708359884 10.403016961790819
Rh 6.960123942943387 11.7428402607263 12.610354008169974
Rh 9.28208090119022 10.965649674545515 11.474885395208672
Rh 14.57824188825143 11.126450529418822 12.678525981616971
Rh 8.365640709117454 8.310042755302268 9.07756197560615
Rh 11.985702880140034 9.204851600443385 11.967433874061054
Rh 13.048176392755526 12.581564387836355 14.35664084817625
Rh 7.095275185272535 10.028027620114221 10.630188109542468
Rh 11.101262354762618 11.24640705463564 15.680592818244119
Rh 9.645267914433678 8.47522945237161 11.202569121359845
Rh 11.067812673101992 11.51250964699329 13.136887979982918
Rh 10.96460273723417 7.484953052236625 9.241411041112789
Rh 7.276286810997062 7.521958754197267 11.445154413513073
Rh 8.816218403651495 11.505445511801275 14.369827249205265
Rh 13.30595722193142 7.464253346845407 10.410081862675858
Rh 12.888394747208249 9.957861134847912 14.291048660211976
Rh 14.293729317230007 8.499537630663474 12.709079756862284
Rh 7.942961140091091 9.411010684696372 13.075877575148926
Rh 9.197506131853682 6.061952401349753 10.470635096620798
Rh 11.967849009890408 7.49703035973054 13.912622194550424
Rh 10.280052836601556 9.325414484792681 14.190595063126223
Rh 9.304993687872022 7.163323756699984 13.310486659949982
Rh 11.36580815651967 6.544143114285146 11.69800408937106
