41
Energy = -241.03298678 eV
Rh 12.029092894621504 6.694066018390586 11.258020242235927
Rh 14.377287522851068 6.702666190407178 12.647768313799235
Rh 12.066598995289167 8.346685827897543 9.250645928552329
Rh 14.251846965708884 7.638604420928333 10.3702554737071
Rh 9.806094410854143 7.757014480618994 10.322985434740069
Rh 10.439794379829157 8.004839412888588 12.815962430616757
Rh 12.886047479456147 8.68008663978815 12.583104177056232
Rh 11.09994922850099 9.89985459756417 11.089019140510953
Rh 15.35950515169099 9.193120356476388 12.194367770839998
Rh 7.601859781773636 8.927523862343818 9.53567340705243
Rh 11.370385371792603 10.102129539959567 14.131642154368055
Rh 12.260782462199533 10.834884732654062 8.285203546203952
Rh 14.242580049387254 10.150903520119916 14.18985879249696
Rh 8.55085829517138 9.581754939911072 11.767984320212168
Rh 9.929136715200135 9.708282068409574 8.622540724715423
Rh 13.705290832288622 10.090718737650443 10.22835540549968
Rh 15.203825260084514 11.662675603251152 11.56462154865051
Rh 12.8629968867074 11.317616238814574 12.408553471050027
Rh 13.965249440785163 12.53903723165722 9.468294200123198
Rh 7.7777066834311865 11.147360940214439 8.203744425996867
Rh 14.046842570228778 11.899281263936333 15.847641490167486
Rh 14.673823781959904 14.174801761187599 11.381889864226736
Rh 9.24029218136626 11.563799217312786 10.22098460006868
Rh 10.13010222627551 11.54780669940338 6.925594457424246
Rh 12.634578373703619 14.791683539323206 9.995626652406646
Rh 8.937350073041392 9.513905237835713 14.244318435120801
Rh 6.686567112048251 13.232856207211592 9.275686111091076
Rh 11.648789467205688 12.388260163331745 10.33908763369273
Rh 10.249095814619183 12.116125129958906 12.602400343236015
Rh 14.475314124698013 12.94706494132844 13.646749836785588
Rh 12.03967838801512 12.537693239234233 14.6068700229138
Rh 6.727361168491355 11.069124380760929 10.719536019956715
Rh 11.762785737939423 13.296909898020239 7.971376501368708
Rh 7.812794046169388 11.595340978049656 13.261938717463758
Rh 10.569431000246299 15.44779422207105 8.72441708202478
Rh 9.1799975879791 13.303185198753656 8.43658997730366
Rh 7.952404841632832 13.285751068107023 11.48894265350599
Rh 12.338283024584216 13.899395244874317 12.393774655387604
Rh 9.69007056902238 11.817051816549823 15.072920780329614
Rh 10.238328653455387 14.38902083302511 11.041489227370354
Rh 8.177605456211149 15.201708606294709 9.861949036244155
