48
Energy = -285.78603066 eV
Rh 14.652242348264636 9.140411120540891 10.939286219452814
Rh 15.498349951640462 11.409731240896342 9.719127157337416
Rh 14.888817667678458 11.390772302913737 12.213957293835405
Rh 13.40798987107433 7.439223431578074 9.37940552363048
Rh 12.773622279748425 7.409410142042142 11.827695482665252
Rh 13.537318776823307 9.426890570253699 13.284178104594975
Rh 15.221079294394407 13.661520524285413 10.936357082594098
Rh 11.680330995561727 7.870918642854345 14.164283818071803
Rh 13.831179885648835 9.884182636803956 8.517385405001974
Rh 12.190016496709024 9.592029572222149 10.594733726172056
Rh 13.165084813637852 12.121286584698037 10.428700308929264
Rh 10.544152610030679 6.274028601877343 12.46919700095998
Rh 10.618027302143348 7.357775265456043 10.18280235690705
Rh 13.340353595274296 13.446002209957005 12.757305702173566
Rh 12.36813027957941 10.50421792608568 6.38052501658205
Rh 11.517944186516317 11.197709361629457 8.67266160760444
Rh 11.572634153558829 8.60451891582543 8.086842957806732
Rh 13.639181941483432 12.408791169854245 7.829944458718799
Rh 10.24342240848066 8.899089821328591 12.312483425344894
Rh 12.99745095151492 14.922156618187632 10.701110127511036
Rh 9.637185145365846 6.462139091203695 14.796569301160241
Rh 11.85585692524087 11.149626915816647 12.555420927706603
Rh 11.467165763795796 10.371835016138428 14.837358782512837
Rh 13.697906022700991 11.672320701123342 14.572113613333917
Rh 9.288430684502519 9.000428766841358 14.632880222039473
Rh 11.503390399984973 15.306599041058803 12.915344920051272
Rh 9.6927354582403 9.79752319368557 9.841380083031202
Rh 11.639933870454485 13.783489171723646 8.883310240889326
Rh 8.20978545500531 7.347332288096027 12.90393585345517
Rh 11.349667814723235 12.961863674493705 14.35390134054452
Rh 9.090553201564846 7.828007462407175 8.187422069455145
Rh 10.701978101204272 12.65853916995298 6.767691771716779
Rh 11.006419520882664 13.306387364085435 11.399016428783328
Rh 9.365055715209792 12.287403074581846 9.500041972153953
Rh 9.155190751863403 11.532286496312324 14.376868493023252
Rh 9.81144377368085 10.167399043416658 7.019592159383543
Rh 9.436962379141056 11.378878967497101 11.903954537870469
Rh 7.905201046440405 8.252170721946225 10.575028879937989
Rh 10.47957531717914 15.603286736399756 10.31859644460365
Rh 7.588241958065291 9.858579722601684 12.75309383770639
Rh 7.519571893259782 9.831075501561296 8.206634427564795
Rh 9.218238253095011 14.417638187029542 8.214621370413909
Rh 9.259901216772516 13.895265164069038 13.25359275789107
Rh 8.16224971589933 12.121431076332478 7.255973022357481
Rh 8.480469922233118 14.218851132657312 10.905403016195269
Rh 7.21117708735243 12.44029160716385 12.573553736572787
Rh 7.289206073439263 10.923532150539074 10.433527297205949
Rh 6.908056380030349 13.110687013942751 9.290052374792488
