47
Energy = -279.84025368 eV
Rh 10.626115442494683 15.955799008439945 11.5876176456801
Rh 15.719452983402906 8.357599553399753 12.47093285567993
Rh 15.623575501852244 9.474317061788971 10.120783233125046
Rh 13.794018719545727 9.909388546943848 11.838791075769864
Rh 11.733648905516471 10.638911990235577 10.192627923853507
Rh 12.72968877376064 17.077997702844 12.524966627520206
Rh 12.022047784510848 10.605049177981492 14.658332164883305
Rh 8.932803967235058 13.759562889584622 8.338836981128114
Rh 7.548286391964092 10.407499259971344 14.239570494359992
Rh 13.259300684476083 7.6969944737438665 13.187051226658662
Rh 11.487599799942165 14.613889461734496 8.394675698653275
Rh 12.285879621925151 11.927718223571167 12.417565983667776
Rh 13.341164635623898 9.388816910450393 8.789310588177802
Rh 14.413418471166072 9.676161288071622 14.354692408553152
Rh 7.164056647599446 10.369963544652501 11.646115479115222
Rh 11.098769124127067 15.692242297844452 14.083179273306753
Rh 14.505924523165564 15.717624572413797 11.323866124915607
Rh 10.175953888648774 13.712498913726588 12.776758178494124
Rh 12.244842605910577 8.26670679260717 15.466278289914948
Rh 9.870094026930753 9.26658514886295 15.1198009240872
Rh 13.855136673164882 14.0471109773983 9.368648924664248
Rh 15.802377691134566 11.08561834947762 12.602326128890057
Rh 8.636956448913718 14.48181913594583 10.834640233012639
Rh 12.435689887138382 14.238069725691863 11.394504393807644
Rh 11.41154140197178 8.13003920027491 10.235653403998235
Rh 10.74964923952337 7.2951328977237555 13.585574607615122
Rh 11.431742794829104 9.375342633192249 12.47939799041245
Rh 9.903067037218621 11.29613407073321 8.288971648948813
Rh 9.755238050441292 11.229521594613335 11.921514113335137
Rh 11.748478089801832 13.163505594978256 14.734031198518624
Rh 9.52549749624454 7.003728009137425 11.318844355801714
Rh 9.637294655998112 11.713755287244712 14.341478059574676
Rh 12.414690165564478 12.175487761881833 8.265637878613907
Rh 9.206900744590804 9.533257744817925 10.066722501858816
Rh 13.381243567013593 14.777149533695914 13.592954783937943
Rh 12.487218698045986 16.404967769204543 9.856708684644797
Rh 14.211003144116468 11.583355388196876 9.913754901843499
Rh 10.69906770115179 13.066431672741148 6.6227276201221645
Rh 14.83301572029213 13.256684158402184 11.762053599902774
Rh 10.613598622578866 12.98443407319001 10.106274994821781
Rh 9.733920073043093 16.159167284850863 9.247931661133991
Rh 8.843958637262709 8.89804774023028 12.770885825060935
Rh 8.102880153326293 12.033837623251785 10.051345903990963
Rh 11.982429744903017 6.140416464151675 11.619457119882806
Rh 13.921060881951448 7.638717610640706 10.659793146552518
Rh 14.08746207186713 12.294391403783823 14.094496550632462
Rh 7.77762966627805 12.680072696437025 12.63942738392567
