44
Energy = -263.1085353 eV
Rh 12.07675332 13.944911266301622 12.07675332
Rh 12.07675332 17.563653785774974 12.07675332
Rh 14.02547385060624 14.02547385060624 14.02547385060624
Rh 12.07675332 15.7693975342525 13.932357650507083
Rh 12.07675332 12.07675332 13.944911266301622
Rh 12.07675332 10.208595373698378 12.07675332
Rh 12.07675332 12.07675332 10.208595373698378
Rh 13.944911266301622 12.07675332 12.07675332
Rh 10.208595373698378 12.07675332 12.07675332
Rh 12.07675332 12.07675332 17.563653785774974
Rh 12.07675332 6.589852854225025 12.07675332
Rh 12.07675332 12.07675332 6.589852854225025
Rh 17.563653785774974 12.07675332 12.07675332
Rh 6.589852854225025 12.07675332 12.07675332
Rh 14.02547385060624 10.128032789393766 14.02547385060624
Rh 14.02547385060624 10.128032789393766 10.128032789393766
Rh 14.02547385060624 14.02547385060624 10.128032789393766
Rh 10.128032789393766 14.02547385060624 10.128032789393766
Rh 10.128032789393766 14.02547385060624 14.02547385060624
Rh 10.128032789393766 10.128032789393766 14.02547385060624
Rh 10.128032789393766 10.128032789393766 10.128032789393766
Rh 12.07675332 10.221148989492919 15.7693975342525
Rh 12.07675332 8.384109105747497 10.221148989492919
Rh 12.07675332 13.932357650507083 8.384109105747497
Rh 13.932357650507083 12.07675332 15.7693975342525
Rh 15.7693975342525 12.07675332 10.221148989492919
Rh 10.221148989492919 12.07675332 8.384109105747497
Rh 8.384109105747497 12.07675332 13.932357650507083
Rh 13.932357650507083 8.384109105747497 12.07675332
Rh 15.7693975342525 13.932357650507083 12.07675332
Rh 10.221148989492919 15.7693975342525 12.07675332
Rh 8.384109105747497 10.221148989492919 12.07675332
Rh 13.932357650507083 12.07675332 8.384109105747497
Rh 15.7693975342525 12.07675332 13.932357650507083
Rh 10.221148989492919 12.07675332 15.7693975342525
Rh 8.384109105747497 12.07675332 10.221148989492919
Rh 13.932357650507083 15.7693975342525 12.07675332
Rh 15.7693975342525 10.221148989492919 12.07675332
Rh 10.221148989492919 8.384109105747497 12.07675332
Rh 8.384109105747497 13.932357650507083 12.07675332
Rh 12.07675332 13.932357650507083 15.7693975342525
Rh 12.07675332 15.7693975342525 10.221148989492919
Rh 12.07675332 10.221148989492919 8.384109105747497
Rh 12.07675332 8.384109105747497 13.932357650507083
