49
Energy = -292.39391058 eV
Rh 5.8421533531322085 8.788245243706449 10.49408277810844
Rh 8.089135288295397 7.854135113495795 9.652697402981069
Rh 6.873999599559826 9.63867213674733 8.322597832688352
Rh 7.6686132798836475 7.830278201587226 12.200489255932245
Rh 9.612411940483536 8.213109338363969 13.751481865205424
Rh 6.054215493506571 11.382892246099711 10.019083413773938
Rh 7.157985183659403 10.258338943457984 12.062961233598902
Rh 10.034567338815853 7.735562462521648 11.222873839723583
Rh 7.620203167017176 9.587194151162388 14.418710267014825
Rh 11.939139734382929 7.493952931716927 13.05128135517164
Rh 10.692183471132966 7.394954537282647 8.687994083385796
Rh 9.056066899668709 10.190761038190798 10.51768553062816
Rh 12.45888374986297 7.279206285315373 10.55529774821617
Rh 9.41134075388669 9.52309910359155 8.074925252892646
Rh 9.998828288058451 10.635092615563098 14.54908804397222
Rh 8.1565347442372 11.752806704933706 8.60845520878341
Rh 11.435754750195658 8.71547419542972 15.446039275120048
Rh 11.06281034875405 9.877603540623408 12.360904721740733
Rh 10.04289136988515 12.184404645403497 12.102622752282821
Rh 14.364433181368124 7.948385089663995 12.310084142092391
Rh 7.509377289536527 12.780463007951479 11.491364962179272
Rh 8.048723294472175 12.026213753492993 13.813519295134697
Rh 11.867485999377784 9.452131710762817 7.452555347718908
Rh 9.192069055208401 14.351220276083838 10.487179743521141
Rh 10.551649115422597 13.16722825738527 14.406409771775357
Rh 10.609876036207176 12.139240295330426 9.563640144756423
Rh 9.340983970913515 13.872319396449772 7.994970155926282
Rh 12.211690930144233 11.38421106827074 15.365674529557694
Rh 10.456282439513657 11.655088727364213 7.069873259431633
Rh 13.412221153196315 7.570396442488629 8.157270744841394
Rh 11.192853333684825 14.449653742907339 12.139327521503256
Rh 13.07368825548757 9.642240663864921 13.77255389003741
Rh 11.617945361800626 9.61322592608176 9.8886953274989
Rh 6.987406634602733 13.867109117092605 9.304084313791543
Rh 8.72071531774783 14.459075632235187 13.035372163955428
Rh 12.599030177308602 11.567829347843155 11.140295182702722
Rh 11.473579605351985 14.583417891027748 9.521485268001298
Rh 12.854722265727238 12.792537284106 13.29876844071374
Rh 13.012405160780807 12.786152426317338 8.724426673492651
Rh 14.09643825066062 9.147091923141383 10.098795431724817
Rh 14.672125560525506 11.491210163415063 14.484122395912692
Rh 11.691897507804148 13.92286323453365 6.925373084955036
Rh 12.928258274204728 11.581669558758348 6.587324028460447
Rh 13.46001136880179 13.910586602204674 10.9994315266383
Rh 14.825227461301395 10.457437094184893 12.150023949835514
Rh 14.41324455993031 9.976147201111065 7.811050158277982
Rh 15.296346690299119 12.870713838740668 12.353667875340614
Rh 15.18892897782642 12.391819590737537 7.476652870788418
Rh 14.903141559933609 11.587014844818311 9.857213481771653
