43
Energy = -254.55770169 eV
Rh 14.489397354437383 14.719203702667901 14.348035435310106
Rh 12.04228499405671 15.066512137446479 13.195207934316382
Rh 12.488127906427392 13.940211468465437 15.435201796174999
Rh 11.306137598109514 11.870683869410113 16.148119658662367
Rh 11.011675781407671 16.429897460666155 11.342969101483144
Rh 13.716671405532875 12.056402310274404 14.245307157540685
Rh 14.110717942395679 13.65984889274196 12.186055914263104
Rh 9.825904005945107 14.209881664142536 11.923769591188458
Rh 11.634668206390874 10.498936040396302 14.102134749956223
Rh 10.252968697854552 13.384126275810944 14.347792355665048
Rh 12.241810732395777 14.305556150336354 10.592732165041681
Rh 9.26226517202798 11.047680780746447 14.863070187183604
Rh 11.815626057327302 12.53404784735956 12.590761737356756
Rh 10.062275755421926 14.956257456981888 9.461273515393117
Rh 14.72201878022584 11.233744698872332 11.982886970644554
Rh 8.318547303121564 12.448518799070905 12.901851794129687
Rh 13.903322236203561 9.471146056744617 13.595221867995015
Rh 9.400460202275164 8.799022680343565 13.488643151156039
Rh 10.446025933321145 12.39816895453933 9.997416773670837
Rh 10.007316401365287 10.744448880486475 12.026075396217806
Rh 7.219575920120021 10.165873794583895 13.690777054986357
Rh 8.04009207748198 13.04230072107079 10.37912967526856
Rh 14.052512971938913 12.683916475440201 9.84097836360196
Rh 12.472367248332304 10.8671000371851 10.794134145918711
Rh 12.05835533923736 13.175902624695873 8.24744247659149
Rh 7.4325363334748555 8.208383135203542 11.974355188198901
Rh 11.82721531984309 8.731618666142722 12.32404810356043
Rh 9.232851429667297 13.27155454822673 7.830171445417691
Rh 15.388932104080746 10.447425796226012 9.478494751709421
Rh 7.684508568540293 10.591789546124955 11.196822304577056
Rh 14.083046486289138 8.929734049897938 11.02429685544582
Rh 10.445014171006907 9.633400108262363 9.694818555987753
Rh 8.416174339399328 11.05468381821467 8.790283994755114
Rh 9.777739185656264 7.673319202509227 11.185940355737118
Rh 13.107292424706408 10.751170243810117 8.38686427932976
Rh 10.699445370155411 11.138705998538628 7.577365922270625
Rh 14.042705259313415 8.406338406320943 8.530186454697112
Rh 8.019064239668072 8.617679944869769 9.462571468686491
Rh 12.092275677702071 7.6170657736560035 10.035398262259156
Rh 9.09390577473583 9.126738499002974 7.151843388126386
Rh 11.685099087481566 8.808177560401889 7.477566157576033
Rh 10.026172700421034 7.189859354464055 8.596668422615021
Rh 12.36304632886089 6.411116392005212 7.873465943690405
