48
Energy = -286.69678709 eV
Rh 12.756406409864741 10.861317833951986 15.542705695087605
Rh 12.759079975756725 9.058396902627363 13.763781511841213
Rh 10.54056641888296 9.796078000300346 14.866456933132161
Rh 13.275938249649856 6.893657372423047 12.720669671926718
Rh 10.540362589087014 12.276887808964792 15.49988214549478
Rh 10.659147096977666 7.525008817806926 13.643509211633404
Rh 8.419763381345115 8.767435862267714 14.004591260380542
Rh 13.028548341012476 13.13149154715827 14.535873103150672
Rh 14.797289956494293 9.194744943489786 12.356197094492604
Rh 11.777868262858057 11.369936166962713 13.176118237546616
Rh 8.915978605946231 11.392838156302922 13.543675786967297
Rh 15.976092243845084 11.468901223710683 11.770329391832115
Rh 12.465162164840304 9.706900006844212 11.226323526725002
Rh 8.49199709607632 13.604064494431432 14.600070762895283
Rh 14.40705271713101 13.183867100682956 12.477633836139017
Rh 10.134739943307377 9.662205099802053 12.045933572584984
Rh 11.321316771061408 7.3489029475442855 11.205810612745683
Rh 10.788821928544559 13.802531778696455 13.496940201615558
Rh 8.790446138399684 7.592658593981942 11.677508553421708
Rh 12.9017818820636 12.198709181024457 10.899704378644289
Rh 13.787098273338401 7.747780871994576 10.349251387987287
Rh 12.85239174329104 15.18137590329491 12.955006678775813
Rh 8.561586323150667 13.94343922783246 12.130417796438442
Rh 9.075277859841366 10.580513757068873 9.857993044629358
Rh 15.010802550666758 12.752717662878363 9.645499461015676
Rh 6.717790092051049 12.24204181739476 12.69662821082014
Rh 10.37111481384265 12.323450366405822 11.223096797779094
Rh 14.67000733652526 10.256094615713875 10.032846980102605
Rh 7.481706752306453 9.920911624770577 11.956572325601856
Rh 10.928388220853549 14.967498992484646 11.289172725299435
Rh 13.960189761455494 8.902365911703338 7.986097511054186
Rh 9.608328573283114 7.087030110747889 9.321806591082309
Rh 9.028444212703457 14.433484415757256 9.686231625106956
Rh 11.737822575869146 8.4232026718574 8.887842040804312
Rh 11.410405584942529 13.683102361979895 9.138077750051464
Rh 7.500855939595773 12.457876290506332 10.27844237423854
Rh 11.468339552676941 10.986283935980047 9.124778795242833
Rh 13.42297197728663 14.687855315915218 10.505934425398225
Rh 13.547670205678747 13.913514723959235 7.930929010449297
Rh 5.867420883624109 10.584241753804376 10.194455899348323
Rh 9.286146676507041 12.458262032300448 8.164998541219186
Rh 13.618272287838856 11.383081697058499 7.9115263402071685
Rh 7.5663000190431315 8.641947313836427 9.694229303676217
Rh 9.473929950951854 9.146157855646418 7.871662760355128
Rh 11.740515233860075 9.916488333165233 6.771282531194367
Rh 11.51417143806102 12.484189309557296 6.846113814775618
Rh 7.337902291705795 10.799796116066661 8.05439523599125
Rh 9.443342810954768 10.996315286394186 6.17854866814642
