42
Energy = -248.36972164 eV
Rh 14.201416153438146 9.317346045931377 8.4509297948639
Rh 13.829653608837042 8.254099920935326 10.798531377260469
Rh 14.698279347682538 11.715360760513262 8.106259997944557
Rh 15.121990326628362 10.532464332326676 10.604685113989845
Rh 13.746662226872244 6.8483011618291165 8.607334421513423
Rh 14.292525733570914 12.468155729105039 12.219143836666758
Rh 12.655175025926933 6.050152436139765 10.884171673030565
Rh 12.215263783290627 8.386733718542287 7.062163395864172
Rh 14.919357315790295 13.36197120385457 9.952001533051247
Rh 11.86142174151847 9.07379940515757 9.535497597770267
Rh 12.530945067635724 7.748808755287846 13.005020428090688
Rh 12.518791452892147 12.188641401998071 14.031167238634236
Rh 12.306229005327056 10.989118248795293 7.690931315799779
Rh 13.421883429837488 10.095304947950757 12.560477066066621
Rh 13.100742839528575 14.560072420346701 13.64629746705183
Rh 11.232924359194508 6.757641037055722 8.896903278048212
Rh 12.954623468702943 14.37201196474429 11.160474563390661
Rh 12.602748280591763 13.471332893014871 8.689434294309859
Rh 10.650768450013638 7.448805549959036 11.336364205805134
Rh 12.853676727060618 11.472144832632619 10.200418627779483
Rh 12.095878275314366 9.7648227364922 14.677565213713768
Rh 10.080693825755032 9.76415325406319 7.775527437088521
Rh 11.089187197247576 10.068802064506 11.669850873743465
Rh 11.21885970980983 15.84856177473768 12.201575945436872
Rh 10.134794380718386 11.281621605427851 13.844156553138305
Rh 10.578192492591693 14.40430838470227 10.133276402120494
Rh 11.241914509768653 12.619168061928681 11.824023358618152
Rh 10.506992082856897 13.955636564392728 13.767785441941998
Rh 10.435087215167076 12.024429929281006 9.14092814606787
Rh 10.06780984953588 8.712902172583235 13.534967959588634
Rh 8.199538340000126 7.932234531552957 11.970998586900492
Rh 9.219406744267351 9.112260084593913 10.052928965886702
Rh 8.933165434037598 11.462811003054416 11.418834711124953
Rh 8.891796091537605 14.90222945261365 12.002614485327712
Rh 7.883959393875754 10.072935860584897 13.318430091262158
Rh 8.11977193793671 12.823366954826426 13.323148243428726
Rh 8.261931292321878 13.296852450545718 9.99377232411403
Rh 8.068163663392278 11.010101933151535 8.774920540618796
Rh 6.904409283973216 10.02482535637996 10.915730880282291
Rh 6.5331576544315615 14.018220699995608 11.725127029706375
Rh 5.920732300054906 11.65886465364421 12.554042478228869
Rh 5.952837674953795 12.181981398710258 9.994944798617501
