46
Energy = -273.98095013 eV
Rh 5.9680664572792494 12.898202057948668 7.537597177150201
Rh 6.394611595733168 7.180618128146619 10.785282095641636
Rh 10.64021056527301 4.70936505992989 9.34649133939819
Rh 10.15402450436669 8.164162048947755 5.084342428084695
Rh 8.139518663592646 11.966246600006876 11.399079333018827
Rh 8.189398490753195 6.634180239041981 12.55232331578596
Rh 11.925576830212473 8.321929077469914 6.961700632418283
Rh 5.067137154229245 9.168765353983044 5.269461836098776
Rh 11.95127435040952 6.371312421091651 13.224890945502956
Rh 6.361212699770784 11.299029768566978 9.584594533399695
Rh 8.96079212965681 10.581008109433382 9.444306134119781
Rh 12.629586083757575 5.39489573331014 10.982393663380034
Rh 8.075430200582021 13.200272234839508 6.139281602782185
Rh 10.668309049585579 12.38985345775991 9.768218799799874
Rh 10.441637501482557 8.310648546940582 12.977281851764507
Rh 6.221761013878163 11.485352345996725 5.277644915044672
Rh 8.440646680579716 9.836502530843495 13.206567486394482
Rh 10.786085090384855 5.984286026066591 6.909913886731233
Rh 9.4990063592507 9.118122842504969 7.370146773177177
Rh 12.13968716137185 6.6942983197837895 8.905109047296262
Rh 7.502004019260823 8.852182260802206 5.554299477350522
Rh 4.403441988170184 6.641774896158524 9.407230805872013
Rh 6.131481488517959 6.681379952981877 5.685002096590988
Rh 8.860490695584991 10.911892710908065 5.097179158494149
Rh 6.678011481074112 6.1663558027396235 8.299967941932433
Rh 9.305685466367299 6.951610895901608 8.894976352741788
Rh 10.945672951546797 8.905533357267105 9.569081935710491
Rh 7.183271054860144 8.688267836734695 8.812971128326115
Rh 5.03322213182806 7.994924530958736 7.469590007758859
Rh 10.295622050725132 10.587855078147125 11.684349812791105
Rh 8.485415569040667 6.716220577921742 6.429810677131468
Rh 6.6323141406460575 9.717116391756973 11.503653446231755
Rh 11.293702099219704 10.429783553161032 5.7027149710532266
Rh 8.74678139322274 8.503409765511858 10.987342438495368
Rh 8.62342731961641 4.57920313686755 7.784542649153348
Rh 5.0238401993767 10.535052617233195 7.460244739386255
Rh 13.51986332033359 8.801838067364185 9.087359002871892
Rh 12.501308117403356 7.994525749960541 11.36852747433796
Rh 7.496400214223228 10.7825070004096 7.298291716141602
Rh 4.814975376072356 9.1971384138782 9.784096916109572
Rh 8.211666382673952 13.011184614866362 8.86280920742877
Rh 10.322637502223257 6.372349514405381 11.265117682759122
Rh 8.068285220477023 5.283603163600174 10.279304069843482
Rh 9.910428566533886 11.852985352453631 7.289252314203426
Rh 12.57724032829415 10.600700188585071 10.716582570433369
Rh 12.007184843232555 10.75990016948884 8.207420112536967
