46
Energy = -273.01351762 eV
Rh 15.575166412539359 9.39836455608947 11.899717051759339
Rh 15.16442800942704 11.256299858313104 10.333927848894266
Rh 14.299666530910022 13.537160804125895 11.356630723282613
Rh 14.247646594575057 15.478451857758008 9.680515349513572
Rh 15.02241192720086 13.262252758438153 8.820158104322989
Rh 13.803683755388677 9.090789458533534 13.701617833378236
Rh 14.372808116278007 11.482559082867969 12.87688919927425
Rh 14.16249307592896 7.31429463353755 11.788356676835404
Rh 14.336525377228932 8.866639631132973 9.568870566807211
Rh 14.06376683138335 10.872239761713475 7.973896815274408
Rh 13.410509043702882 15.7234040018853 12.291452945110096
Rh 13.340660534678106 13.599557965566776 13.842732866216275
Rh 13.067182805848361 11.18789150303378 15.05667859745505
Rh 12.83821516475475 12.270162367657944 9.639194631667836
Rh 9.822278985047033 7.248850635728058 14.10624915356177
Rh 11.970532791867527 14.63316478879637 10.447125737966848
Rh 12.643425928909966 14.23503501642189 8.02526654856635
Rh 12.923044141777314 10.002540841771625 11.33219900502815
Rh 11.430890970852232 12.005480933159014 7.505632907139367
Rh 12.151882307095539 7.684519701783573 10.247748779993792
Rh 11.838212217106136 7.765563508687926 12.797931571927696
Rh 11.858437454077492 12.363192241358096 12.01275185377204
Rh 11.818311375371481 8.544180052999382 15.221130346368053
Rh 10.164189466990504 14.112946305450206 8.720302755899628
Rh 10.338905367414696 11.855185444006437 9.885635487531795
Rh 10.983083731025694 12.585388417504218 14.40847891933661
Rh 11.219540880480187 14.790469985191017 13.01180097323974
Rh 11.828306305490504 9.836316271932429 8.874568882088676
Rh 11.254752048176472 10.231099269864545 13.511450962512122
Rh 9.961725652346681 6.806649971190446 11.416263025811078
Rh 10.304114449183942 9.495000205750111 11.196474068010504
Rh 9.564115967367297 13.957143220289254 11.241890514092972
Rh 9.316161155339113 11.601568248051837 12.445469427121711
Rh 9.402300751601768 10.428185056342851 7.854834562181015
Rh 9.925646661862356 8.088463468542045 9.099373764345877
Rh 8.80040999961639 9.20953750689931 13.257604950668604
Rh 8.890250339500264 13.887315547591754 13.65002787775843
Rh 8.157228946059286 10.50830197954086 10.071878544098594
Rh 7.564447366088831 8.598484766614371 8.377806729359754
Rh 6.876918080918513 10.41153317055246 12.211969136356126
Rh 7.988113371441736 12.9256676300567 9.349376988500014
Rh 7.916806525086854 8.120543893646932 10.990695756636647
Rh 7.2438222903724485 12.994504585078806 11.88569936407284
Rh 6.780581494718721 10.991284894784377 7.947892073062992
Rh 5.796301416612495 9.226081954179914 10.128008199762863
Rh 5.81396023291026 11.82348233713878 10.190767615003749
