46
Energy = -273.7527248 eV
Rh 15.167350802784227 9.044212323413047 12.773636033959937
Rh 15.489816845167764 11.592553503988187 12.44150681264806
Rh 13.993021455101164 10.166353845590645 10.864827361515925
Rh 13.730696015112963 10.778729433648707 14.08308065436007
Rh 13.038590847789374 8.319853128794104 13.943853903229778
Rh 15.85018732716787 14.01701572404532 12.019636667023056
Rh 13.367441628504608 7.731375902797991 11.3899026045595
Rh 14.852664010797879 12.556003050307991 10.168139267752634
Rh 14.163749138331651 13.401145060384938 13.847646756548134
Rh 12.582005202115525 9.754804377688602 16.03140915319737
Rh 13.643835895087673 10.983534726956746 8.478692113211391
Rh 11.74865809197181 9.694631253174492 12.223013970320817
Rh 12.246748088297656 8.907346541564218 9.345507440772227
Rh 11.168472808329621 7.134734649581822 12.588826524657382
Rh 12.247961143976708 12.402065045601173 15.333921257389482
Rh 11.351413459051512 6.682612598808841 10.079744223590406
Rh 13.439222696328995 14.443112106374667 11.3842750484422
Rh 12.75105177174257 12.11893351809408 12.185915764011783
Rh 10.80468479746758 7.96338074931983 15.034007883190414
Rh 12.81847050619405 13.627322622437774 9.058427823709696
Rh 11.615528381944774 11.314355399648154 10.095065767525787
Rh 10.720217900204043 10.463514094286438 14.57890847182705
Rh 14.864353601337058 13.043308692100826 7.671784005305974
Rh 12.449856544606005 12.548914119238212 6.788768069993582
Rh 11.719802955255156 14.08899805241474 13.369271232178354
Rh 11.15451399110821 10.495940838583541 7.616301957003224
Rh 9.870617066071597 12.827093923130287 14.533643786117814
Rh 10.018017274481169 8.242348827839379 8.218126084873573
Rh 10.988513695560872 13.741860184797437 10.868035670482783
Rh 9.374698285154626 8.852936560452473 13.126108381786933
Rh 9.8708833809798 11.685504551856162 12.07879712167434
Rh 10.442700741934065 13.031280008534194 8.35183396760942
Rh 8.172366351431204 10.944535264634899 13.973894804701523
Rh 9.916237344557707 8.754309246726153 10.651562457578521
Rh 9.128054668279688 14.251718971698853 12.523200862739753
Rh 9.959777523136696 12.14096621244106 6.02696035674129
Rh 7.511902564195207 13.467274444388279 14.422055251985707
Rh 9.1836190287366 10.985575742142258 9.434389585402265
Rh 8.721610293517713 10.06809337212962 6.951954917789838
Rh 8.552231034538407 13.45819657924634 10.087885405407437
Rh 7.800663221159579 10.031738292663615 11.54716875442454
Rh 7.277733587603454 12.480001443881514 12.125313730879842
Rh 7.988395213235614 12.529200025724636 7.715370300260816
Rh 7.63821435375589 9.068953224670691 9.127211060222113
Rh 6.343686481348198 10.575494628434958 7.4655765024266465
Rh 6.703458428919296 11.623095977460684 9.772025316649943
