41
Energy = -239.22292195 eV
Rh 16.465297031035416 10.131594335288147 9.672405816759388
Rh 14.921594008517184 11.578861579051814 11.007567930875684
Rh 14.85938270770075 10.79482383697734 13.681597526461141
Rh 14.834743292000622 8.241316229652435 13.893069551787875
Rh 15.673503291615681 9.218645109565177 11.778654727407837
Rh 14.199028261229724 10.346060041137276 8.858557705826842
Rh 12.520073801020144 11.615704521509532 7.462726889801743
Rh 14.074175946658626 13.80563800462263 9.974291282864046
Rh 11.839315324523673 14.354761030137377 11.003036388869475
Rh 12.464033261729652 11.887733746795517 10.048756194174937
Rh 13.441186468932035 8.912217806761966 10.83852387945038
Rh 11.85353238101909 13.885744011817486 8.496481385239154
Rh 13.189192513944844 9.600463994759348 15.256148869374579
Rh 12.80055272720516 10.707204845546407 12.383159546270212
Rh 12.638987122873448 11.990532987335696 14.646147476283417
Rh 11.683854524705014 9.625364948840994 9.09344605808901
Rh 13.654238039135699 13.141092934971265 12.541667400458763
Rh 12.48291561526117 8.211182027411546 13.139111546597404
Rh 10.443351545786426 10.78395234935929 11.19751702387852
Rh 10.200802988378427 11.707973436743838 8.615474226408212
Rh 10.553716931725235 12.97107174521852 6.472382387642821
Rh 8.72458131943892 11.738018302718292 12.893309215360214
Rh 12.387865081837186 8.704111807275643 17.34241557872789
Rh 11.068321777181096 10.62112945057927 16.355978528826704
Rh 9.80259106344708 14.966735912525008 9.671091819833546
Rh 7.68141465734114 11.220113946710232 8.572756238896549
Rh 10.151784365693603 7.237885433396269 13.348910173856108
Rh 11.114477288074328 12.797782011658787 12.791613275556335
Rh 10.144065350152966 15.316254345704536 7.158463103110079
Rh 9.100700079743486 9.355234501417087 9.66661216831718
Rh 8.68289717619393 12.634054175440125 10.460101372853721
Rh 10.947955690781935 8.183565252912082 15.436020054020174
Rh 10.998267145053722 8.17616010664122 11.049991410807825
Rh 7.294361642366108 10.595629564814654 11.028425677714084
Rh 9.349966272985037 14.403335509639005 12.093316253783584
Rh 9.994393227232635 12.385264807039546 15.006278304004319
Rh 8.404324464512406 13.572414379531622 8.0055053880849
Rh 10.657812254207027 10.16714052108266 13.853859004339844
Rh 7.360815779358275 14.761892172276909 10.26600536850572
Rh 8.050149715727999 16.120411354935456 8.200510365522772
Rh 8.860466362195595 9.10161541872113 12.308801381879919
