48
Energy = -286.96158889 eV
Rh 13.249782441376967 7.731580823748553 10.277864412406597
Rh 12.61224628876256 9.73385933394644 8.675310952895927
Rh 15.09494594706377 10.782425414028639 8.501158001355975
Rh 13.485480469357853 6.175948988552776 12.34128676646262
Rh 10.531727569220877 11.98026600127962 8.015917030193176
Rh 14.297344167766799 10.037316901212476 10.723500032539015
Rh 13.145556615520363 12.114343833955688 7.71152869883477
Rh 10.957508560522689 7.747263820097385 9.140287139399446
Rh 14.383715138965654 8.45166195001478 12.774974658015424
Rh 11.18432346086311 6.9131333823769285 11.615914163247716
Rh 10.12642164197675 9.640174275904975 7.626107144616467
Rh 11.595631577029522 13.821219478911594 6.728073293463686
Rh 16.311344178302683 11.482468701324326 10.862964343119096
Rh 14.559903070510154 12.96722093890892 9.785842962899018
Rh 9.002833781487867 8.083299841761304 10.823476314721457
Rh 12.365857661371336 11.92625166751621 10.30630919841347
Rh 15.634112755555147 10.614435196050774 13.165026153168748
Rh 13.307534642519697 11.532086593162823 12.642247514111945
Rh 12.113355281640793 9.27189979530537 11.962657140477729
Rh 12.168106924422625 7.780391247774567 14.042869739344502
Rh 8.43150229624946 7.973884288493524 8.397190518167813
Rh 12.375727232996558 14.192617593896411 9.105887762405766
Rh 10.530968886031257 10.062116241298451 10.146942796521353
Rh 13.346318209089633 10.006783011048212 14.649108988208479
Rh 15.061213136922268 13.20088228868763 12.288820458143784
Rh 14.499342407763304 12.35847489340534 14.761069882179196
Rh 8.155365628793605 10.295673780156633 9.415251333785994
Rh 13.405333521795106 14.863418384364268 11.289240483911936
Rh 11.516532963882147 13.40351784561577 12.282034703799786
Rh 9.847535103121041 12.553722664485623 10.467320128971142
Rh 9.931500249367664 14.501954464818695 8.535317179552113
Rh 13.258240988695876 14.418790910831191 13.848558788879018
Rh 8.114316743392296 10.079145497315773 12.139825174043546
Rh 9.78097588511319 8.313111642790796 13.197500449677653
Rh 10.343229524313816 11.053431594367394 12.621023143845282
Rh 10.825519231628679 9.940032354079332 14.892317125613584
Rh 11.922998186685367 12.295005720992549 14.686922744589971
Rh 8.028630867306413 12.748869391626387 8.620451576670268
Rh 10.828354781481021 15.327808462995254 10.840902408420543
Rh 11.852101743929785 16.337333570566273 12.921736200656849
Rh 7.3464986891557 12.237528928269018 11.016869269346055
Rh 10.566671982816729 14.531724016923196 14.345624890063783
Rh 7.111378555201966 11.854300585318981 13.602488119058568
Rh 8.27992245861672 14.646317216967025 10.49331654971558
Rh 9.37714153186513 12.072476647632595 14.815554439215319
Rh 8.248028326732069 9.739791821490853 14.683399036513284
Rh 8.859728190042897 13.46055411737586 12.743977032367878
Rh 9.222446275333784 15.93873965091379 12.663288928548624
