40
Energy = -234.45363651 eV
Rh 11.654480848565626 16.205833344896096 12.476575080722819
Rh 13.293380920309056 11.031046310436562 16.046874854715306
Rh 12.273588302885845 13.713127003458581 12.713415257525414
Rh 10.590857509671615 14.914449930451944 14.322543696110298
Rh 13.95536352009683 12.324444691929777 14.014019581943925
Rh 11.752739534190225 12.862212776521625 15.1470889316935
Rh 8.406316579396767 13.853389554882593 13.861286009919661
Rh 12.086019108909003 14.910720595304038 10.389299574813663
Rh 13.736249264390334 9.732821592594657 13.850592384133908
Rh 9.858485138223726 14.556397249997202 11.739929163436402
Rh 15.232036919219366 11.369192370871026 12.179931907953517
Rh 13.749749524126782 12.883536971574129 10.693279694835983
Rh 11.268804422758075 10.3619823460408 14.619805776134744
Rh 11.067512931583567 12.530427508229161 10.47321598436724
Rh 9.206511864629517 9.294974016579724 13.587566492414535
Rh 8.185490932618215 12.47929063211748 11.707105073415892
Rh 12.442123421820545 11.0755322827045 12.091207801004076
Rh 10.21238724463668 12.182888898623192 13.224436689304214
Rh 7.897392666335501 11.414893123602537 14.037031601482846
Rh 13.536698397187845 14.283394287682299 8.491779915884491
Rh 9.810004981014993 10.377719505870793 11.351768680919108
Rh 13.440455918417927 11.83296588005791 8.412305002905708
Rh 15.096366209157763 8.695566059746344 12.07825613396423
Rh 8.82848305809963 13.594192474864293 9.53338678047164
Rh 8.30485493864582 7.684673132938649 11.918517568224116
Rh 13.049383366855263 8.010895817129393 10.870371119764975
Rh 11.577541819873149 8.767547070549146 12.695327804029853
Rh 7.172979853354494 11.479384193494704 9.682023614008653
Rh 11.775090099975223 10.012364582163803 9.62939094491396
Rh 14.279377664842825 10.150834399059681 10.196914681080022
Rh 11.226257644077986 13.245896895930121 8.157409029588777
Rh 7.240898481239065 10.053410887064242 11.94526683459173
Rh 9.50444479287609 11.278205211666926 8.79360811518153
Rh 13.606604746437347 9.459577320408968 7.7628241534740905
Rh 8.167364135466707 9.10596680789908 9.732255800444387
Rh 10.408614948611312 7.883045651739028 10.582789727275005
Rh 11.444517789905552 10.850637258557093 7.168050302545276
Rh 12.143582443148375 7.518355653353711 8.597269084408161
Rh 10.023344204829561 8.84396792508867 8.102020059524632
Rh 11.759054423551252 8.456138747423 6.297655429921792
