48
Energy = -285.25790345 eV
Rh 11.622297675931465 15.8210550444668 9.780151987971117
Rh 10.774801384452632 13.943570882295607 8.38418794949656
Rh 7.413741401469352 14.291888579393573 12.425960796777666
Rh 9.535140718400864 14.487692835951032 10.870219637204368
Rh 9.641208380753628 11.928513350146293 7.023156612260425
Rh 9.708637129299305 14.40412228547872 13.528555256338697
Rh 7.358243074582333 13.056793930615818 10.249584591814669
Rh 13.182603743321284 14.484644378800274 8.110775542081615
Rh 13.736504656851507 14.609522672315855 10.692025331932218
Rh 11.68428127116272 15.38208461638319 12.229953011358072
Rh 6.4377221428346925 11.85669727401637 12.338122318094237
Rh 12.218510887314103 12.128503223187435 7.318620289925968
Rh 11.719902052893952 13.048111297534751 10.725645079973182
Rh 8.032421821940439 12.536421066670954 14.211290211885522
Rh 7.473740402926146 11.444271112895125 8.286918379910883
Rh 9.536531171046203 12.102718812195848 12.108300071582127
Rh 9.73290871605844 13.489386156279616 15.866323133874326
Rh 9.61104150296028 12.068627237842177 9.536850320741499
Rh 13.589180983249454 9.921342913410424 8.07314693280788
Rh 7.864824594417898 10.525214872995678 10.690801863550321
Rh 13.81518089685087 12.31231690234759 9.359445333106134
Rh 11.143257304757912 9.853092233058184 7.05298226325187
Rh 13.881694676127907 14.61189721969321 13.358110379552153
Rh 11.755553805301354 15.056900139664224 14.860061518986699
Rh 11.91092560638386 12.96407132060071 13.413945009175725
Rh 9.398879025769007 9.559257026295343 8.85389197585918
Rh 11.68778031962685 10.658594764641906 9.478606584131134
Rh 13.907927337984322 14.308081305036202 15.938468524692013
Rh 14.044673629485606 12.372363226004492 11.926328334868316
Rh 12.299654622704402 7.719618272944403 7.4221893429457815
Rh 8.350119091135088 10.125512992523442 13.158461094339632
Rh 14.094645972596224 10.103596079754242 10.646524451685394
Rh 11.811147468596007 10.778837630669152 12.107100147191991
Rh 10.271248297180358 11.267266668086878 14.561232787034024
Rh 14.231147844979388 12.275081281447786 14.501701163440405
Rh 12.078408249614187 12.494105020598658 15.90018937142992
Rh 9.404259575740959 8.637154568294218 11.245049352191469
Rh 13.91458390123849 7.752219481940825 9.41209199484719
Rh 12.05499417626794 8.537196302959936 10.903186357760214
Rh 10.616432750495823 7.343112283122607 9.347429309233314
Rh 14.691207827051638 10.153924556477705 13.096042009496285
Rh 12.639587776905966 10.239854708887 14.568334464340731
Rh 10.637811195202412 8.938649161946307 13.456208866154284
Rh 12.485767925148703 5.720607389775236 9.081507709238524
Rh 15.177849735705331 7.992049814871464 11.645069669766196
Rh 13.134887338527323 8.155037841918269 13.149236358331091
Rh 10.7736085769345 6.6586871436687876 11.992170463182042
Rh 13.23064486295892 6.197855623033938 11.431969347326318
