47
Energy = -279.70805276 eV
Rh 14.519992085703374 8.048428289342123 10.408832977193134
Rh 10.734425289355014 7.096915925882163 12.578124224855443
Rh 11.912951330644855 7.40791781131458 10.262200973912305
Rh 12.876761509730335 8.543430595421873 12.492940608921268
Rh 14.85208363555289 10.519284268050868 8.911642153689217
Rh 12.957756177527894 8.627959561516255 8.078467783114135
Rh 14.701860719002562 10.415304131876772 11.869912302278399
Rh 8.281737542664658 6.172721309794049 12.623827387229348
Rh 10.846345391436236 9.316793945824596 13.828511263683383
Rh 13.092196903340994 10.55365396311815 14.411674835859582
Rh 8.981573843154617 7.729995147104176 14.620464136557372
Rh 9.350918343515094 7.059595391174797 10.356008181707601
Rh 12.92816804655816 9.821539368727619 10.286529051240075
Rh 10.39135891896889 9.640715612492038 10.573471953938355
Rh 10.389614416327294 8.265092706563259 8.326827072415096
Rh 11.986357768988505 11.064763578546229 12.244864628760538
Rh 6.623870386467587 8.124859418022378 13.50094387586093
Rh 13.890670776352486 10.438556618908837 6.4116350544830185
Rh 13.616040223649073 12.39912696002227 10.354561317052399
Rh 11.289874512182491 9.791969771273608 6.334887110604361
Rh 6.828304068721336 7.536550876147128 10.954075088834129
Rh 13.914265521466444 12.591456842303973 13.018224871049256
Rh 10.472641122876757 10.980633904159033 15.536960564125835
Rh 11.524377013588065 12.77682731839995 14.020900420111637
Rh 12.157167821413752 12.232618860042324 5.890647513252851
Rh 8.045474735590506 10.214012119112846 14.275695837177217
Rh 8.763011809770711 9.339918477843986 6.6424701767179455
Rh 13.979718300765251 12.899181038248477 7.722988359449054
Rh 9.49019280989587 11.24735074875536 12.441773012999207
Rh 12.324721648809449 11.170085179836022 8.286285938530105
Rh 12.158248857523045 13.977312788168543 11.748975216967514
Rh 8.76447857398504 8.717378162005279 12.252869434902445
Rh 6.751444831531385 10.02937159851261 11.62895808712969
Rh 9.61953737258638 11.983876563265914 6.237942707781296
Rh 9.829680738346113 10.812630724084823 8.380700906005154
Rh 7.992475061410643 9.146773806267412 9.295900431107764
Rh 10.77714406801337 12.255189210035905 10.278480177918093
Rh 8.960809281705037 12.668297468424466 14.495815386898652
Rh 12.959757527143571 14.631812168939128 9.395464208731864
Rh 11.313063034930295 13.498019573558539 7.873992693998211
Rh 8.116359510287259 11.612645175677851 10.232165705058007
Rh 7.370098181309292 11.24177432484403 7.726062911418636
Rh 7.270195134427736 12.42097821357389 12.580953269005398
Rh 8.849936349239035 13.253771598285546 8.402181416041596
Rh 10.344579157378206 14.757275326617975 9.968806995001614
Rh 9.678227679029789 13.762174586762649 12.263671839359887
Rh 7.838418981592213 14.108025183878905 10.565496958611545
