46
Energy = -273.89715391 eV
Rh 6.467498681128411 10.9460514677577 9.321132024290895
Rh 10.527136126112621 10.258262617360899 6.003254136166107
Rh 9.195752619802622 8.197708195341944 6.898930673240542
Rh 8.434273239701865 10.52483337727963 7.617942454074225
Rh 6.528409927581092 9.38476714439181 11.256701756292614
Rh 7.459625853832263 8.40420167331707 8.894544957827446
Rh 7.544993828726424 12.041965451059077 11.563226939624455
Rh 9.452330843602573 12.651412190217474 6.747371836346913
Rh 8.397808243204702 12.662578804369748 9.113255306103795
Rh 9.914575268124564 7.5055970308439175 9.221148514656774
Rh 11.773833493386798 7.789462143723018 7.278828997738128
Rh 13.07014938782122 10.000899033921714 6.6950193282162145
Rh 8.751413666037047 10.113154888751168 10.26865159562698
Rh 12.421244532861651 6.802712749560893 9.771707607459264
Rh 10.482921395881451 14.055065321500084 8.707075386541176
Rh 10.709810624959326 9.797809643920901 8.482791371020802
Rh 6.723846058425723 7.887001816870074 13.269413107105223
Rh 6.954782459107735 10.477567901936988 13.586804324615928
Rh 8.194206655617524 7.334483866755515 11.149208571630485
Rh 9.475659738464083 13.778260298098946 11.208097296324524
Rh 10.73461960324866 11.818405233338016 9.911430991979106
Rh 11.786731168094562 12.027954853473315 7.585506272351135
Rh 11.57149229813341 15.307092533150627 10.72365874050414
Rh 10.698715103580254 6.689747141609085 11.489082148409675
Rh 8.895979385778132 9.108079108404969 12.82107692313797
Rh 9.679130935478419 14.573820977686317 13.490037204422189
Rh 12.934168937722223 13.443387380881346 9.532902684423238
Rh 13.1099399593181 9.058430909175293 9.062823307256668
Rh 9.931973020470386 11.340963599322082 12.305720985093911
Rh 11.046198910595674 9.276675463319975 11.049051982646802
Rh 11.855220497414757 13.07570446448926 11.86430850834942
Rh 9.16793085791613 6.705881734352335 13.473446693140732
Rh 8.479934053720399 12.389160193023294 13.995142566882045
Rh 14.133368841909006 11.417288443341896 8.537722975713223
Rh 13.026573012883679 11.017498346766748 10.835216535708835
Rh 12.286908648328145 14.896668935955313 13.503271827776327
Rh 10.209614133069048 10.274759647615102 14.63182126874836
Rh 13.973699368519442 14.67278397277033 11.577965593237003
Rh 11.329483619581971 8.173065700990755 13.42618988653242
Rh 12.358474184031083 10.498441812495175 13.293406614238153
Rh 13.422460189926834 8.530977765464465 11.636347002230423
Rh 11.162233599766457 12.669018473947917 14.260572556066258
Rh 15.059517076699969 12.461471498704556 10.813291035165529
Rh 15.31558156413091 9.8489102418096 10.260324079863418
Rh 13.840570524900683 12.732291139255059 13.323504900064723
Rh 14.828846324905575 10.500681391483615 12.666525389666795
