42
Energy = -248.35120029 eV
Rh 7.865605050848 7.8827931017932515 9.773593773324361
Rh 6.844301057567579 9.166820777599217 11.709260191126004
Rh 6.378237840445567 11.321119594177889 13.135596998661434
Rh 7.743997436234513 10.48074164692278 9.482441870505262
Rh 8.991747075798111 11.530028639173183 7.531179364993255
Rh 9.317290055076924 8.441443241356199 11.787293388432348
Rh 8.258394659949799 9.58581180385136 13.976552278585183
Rh 10.445464926741613 7.382967094151047 9.742458223146679
Rh 7.07855946420489 13.043508109138864 11.566188700887398
Rh 9.270671826052139 8.942265294962738 7.96364482239272
Rh 11.629240268013055 7.932096169372804 7.509956642562079
Rh 10.673276764108094 8.796067608808654 13.912464608141512
Rh 10.251196540729184 10.111157702039714 10.024313700689351
Rh 8.77020040882987 12.896346278665268 9.670974657634849
Rh 11.813585967946043 7.717287327162552 11.905822249031406
Rh 8.078407839261653 12.02212558306994 14.806325410913075
Rh 11.294662463260737 10.476767180458161 7.611211184485976
Rh 8.57585328715453 10.946615134100044 11.815596877129018
Rh 10.294139834111181 11.5473816799299 13.78466787696698
Rh 10.962940605835367 12.999810589285856 8.17165124883728
Rh 12.52865794895307 8.86767945413216 9.694183856367685
Rh 10.644171745903591 12.4662044199876 11.318249015519397
Rh 12.485883162144862 11.576623631470527 9.716611360318465
Rh 13.65651549982554 9.594893189954403 7.416012486770531
Rh 8.64446242397758 15.053974190571036 11.02819123785329
Rh 11.98363892971936 10.301944108138633 12.065112641272226
Rh 10.889792843345486 14.663503151289344 10.077289874423673
Rh 9.88569903856403 10.181278793053316 15.865066539594872
Rh 13.240824953594634 12.1812370691617 7.319458198207762
Rh 14.148759192593431 8.962732697296788 11.752715524034697
Rh 8.994959079484264 13.569824372093391 13.027102446017306
Rh 12.413951735741092 10.489182848475728 14.691147852023065
Rh 13.206143117907434 8.158206484160614 14.050254893506114
Rh 12.509556860801768 12.655910662789106 13.2089114208196
Rh 15.611630903670715 11.220010601146184 7.500851556993302
Rh 13.104187004086643 13.772942338822812 10.971864536022611
Rh 11.154300356197599 14.749472754276951 12.691452837597003
Rh 14.787637109403374 10.150187955355943 9.622693431105478
Rh 14.721628502865162 10.349866317438327 13.813710197376638
Rh 12.954543993077078 14.501136091244426 8.526453274271867
Rh 14.363954173105741 11.63350937567342 11.708342000104357
Rh 14.767887765774496 12.747912056332959 9.348484768814227
