48
Energy = -285.26039675 eV
Rh 10.862130943380732 12.715822688511862 12.13465160273616
Rh 7.601640398849773 8.866939294636405 7.578660322697379
Rh 13.905582907388675 9.836150336267124 7.186941246967485
Rh 7.512495662590895 11.456912639342713 11.497612236293126
Rh 9.849452463049836 8.09366977922257 11.695987531655467
Rh 6.3805778068136 12.848024239611512 7.47409406937392
Rh 14.056036796821395 12.190372760814073 8.373675281980187
Rh 9.976135405232519 8.531696797163171 14.495194182705498
Rh 8.191115352027518 6.935611694044271 9.11493366120252
Rh 9.81008383647778 13.38940095401136 9.950189785589705
Rh 7.060788195387401 7.304191731510282 11.426573697534891
Rh 9.212324276588518 5.690594648177958 11.312689212941168
Rh 8.305066128081837 6.781190593050422 13.514165824615207
Rh 7.109964805889293 13.262934191956967 9.815073640844053
Rh 9.264076721639347 10.287683151416402 6.224381589626607
Rh 11.511286320486347 9.48166985662093 6.278844882284442
Rh 14.834992609050357 7.794567338174109 8.50878649485554
Rh 12.375008772682222 7.795810975142145 7.9031615693782244
Rh 5.799970348772807 9.597714221290886 11.400664878178254
Rh 11.946521883975738 8.64804836636554 10.277629691894505
Rh 6.697987288242043 10.743416739214744 6.222342540946167
Rh 10.61810032262645 6.517135871377715 9.265800201941731
Rh 8.362557267237523 15.490201590350528 10.061415399708933
Rh 8.818480587383302 11.780179236807212 13.622317008683837
Rh 7.8845210629641285 9.313109298950854 12.975445305861422
Rh 10.739271033230551 6.262902171396587 13.516429751239473
Rh 5.814446483133881 8.133393280605786 9.297651395715903
Rh 13.25356003391131 5.879777665526162 9.279386701899506
Rh 12.288530618185156 13.046115182994724 9.890387728084395
Rh 14.214660412756741 9.940725354990416 9.739138075004258
Rh 10.695996441873945 10.316978080108631 12.957552992476055
Rh 11.950715915606425 6.218088666952889 11.376427110486636
Rh 12.261124893375047 8.355317757183968 12.85353746999649
Rh 10.004233265162858 10.855531250283459 10.563357350126127
Rh 9.756322975208477 7.3164236637088935 6.913377250329104
Rh 8.537700155908867 14.241236678695333 7.92716428258439
Rh 10.007999744316416 9.100244254995243 8.600471400083553
Rh 10.543240916102373 12.699793525771398 7.521357674918499
Rh 8.516472842677528 11.396681822580847 8.419324459748411
Rh 6.092948221740297 10.746258037009197 8.958026654357978
Rh 8.387985857199169 13.758244328205896 12.013584535673795
Rh 8.324189697519097 10.107749511481028 15.327219253473698
Rh 12.509933061049013 11.862964458102343 6.327155967955963
Rh 14.104704348021242 7.615047929829113 10.981367601970858
Rh 8.021360184729991 9.307543521577406 10.18853380012366
Rh 8.460976512384548 12.689551567872817 5.940564398927495
Rh 12.59115920769291 10.930147743948185 11.359400850567758
Rh 11.914293922830092 10.80495946040284 8.676076342015676
