49
Energy = -291.58023507 eV
Rh 15.492053679352807 11.731406610481839 15.602834833812645
Rh 13.548489026701755 8.199515523102535 13.948127419327479
Rh 13.562922118705327 16.499881614840785 12.044812369635807
Rh 13.235701608595818 9.236741212409916 10.120746134783392
Rh 13.319272529184518 11.081602748667814 14.293076863965505
Rh 11.479556670243053 9.308033738293505 14.69869796753774
Rh 15.566691559118485 14.886922555820423 13.456186234594425
Rh 10.508302354603574 15.643125219333498 15.191943498903457
Rh 9.34127916072408 13.951546369138514 11.072633425817072
Rh 11.972112026885005 10.375679431241373 12.237097520335153
Rh 12.08162058553202 11.37875691133794 8.936353514775469
Rh 13.310868255717736 13.65074388263883 14.377986934031913
Rh 17.15794082135341 13.153695723846358 14.435334155429695
Rh 16.992787320535204 13.425526556215683 11.69536864618766
Rh 9.24425763408548 10.686511403339411 14.637256749086314
Rh 17.508770221418654 11.042186171177011 13.023607126006402
Rh 13.7427265189126 11.6887600278994 10.798028762995365
Rh 11.260087468081522 13.914039404082049 9.155666545708577
Rh 9.450048017843457 11.125286401370483 12.053950206869178
Rh 8.64381842524987 13.025861630619238 13.510253826283638
Rh 15.163294314758001 14.346507204044304 15.984208202345608
Rh 11.77801982602588 17.32460197309493 13.638165709669583
Rh 11.31500642726265 11.303635277248684 16.216638899982183
Rh 13.662900611021154 14.00716123395967 11.792733560188683
Rh 13.47050521644386 13.253481270143041 7.946199756219804
Rh 9.904407469611655 17.430741191466705 11.824866981423163
Rh 8.954781967332373 15.398731348759249 13.118499348378226
Rh 16.26181666618892 11.067217881753818 10.825601036614293
Rh 10.642821330073499 9.584557545309792 10.24660561756071
Rh 13.441602909785086 15.261465355786093 9.61936906208839
Rh 12.383489560654446 14.747121193503865 16.457243594605398
Rh 14.548710115544493 9.765200697570977 12.286896440675822
Rh 15.845174690624017 9.62491415644564 14.38480508835171
Rh 12.128658543141073 7.778222626574243 11.853961653653265
Rh 9.322642460503081 17.65174374132234 14.217290151494241
Rh 13.379783304160416 12.477869390656469 16.699023851078877
Rh 14.677894977092787 10.972363729544083 8.655189342411685
Rh 15.312117788814856 13.338279267922566 9.68154376155832
Rh 13.762952275701615 9.71369648674886 16.233122582031257
Rh 9.978577385101245 8.739092060210094 12.789140659758992
Rh 9.661395471696135 11.893206426826602 9.594329876941403
Rh 11.49951013197311 12.7557502032016 11.359134570715408
Rh 11.428732777916302 14.849970750576572 13.041901969854885
Rh 15.177423002333619 12.257010346134152 12.979041042227742
Rh 11.074622828760882 12.350215184637916 13.864872224013645
Rh 11.269362802011429 15.860724948787807 10.74765271040742
Rh 9.911170788623787 13.326710530195452 15.830921601663118
Rh 13.734275667906818 16.169747576184072 14.64916895690756
Rh 15.675014545330226 15.530216146667065 10.957880870329188
