48
Energy = -285.39477404 eV
Rh 9.984985166411292 7.046103195430824 5.413655369678759
Rh 11.977680880354438 8.821685158950212 5.465733550043041
Rh 12.339056146753085 6.278775901340279 6.294538961046326
Rh 10.467125535207765 10.485764771503659 6.673224340430815
Rh 8.481027218479257 8.660029011994494 6.548438915847346
Rh 6.0173624049367085 8.36974920478619 6.642092859843407
Rh 10.049807546344848 5.414079265078431 7.473842989789377
Rh 13.524976377723888 8.310452799429678 7.497039099190729
Rh 8.763004909124447 13.670125408209456 7.701674775357992
Rh 5.48412930196701 10.823858882724064 7.553267868936809
Rh 11.533648597629599 12.918837423782042 7.003668402066487
Rh 10.959561884605678 7.904981513554305 7.633493983083039
Rh 8.597388943265408 7.12584997846186 8.671915265651469
Rh 8.080870324293912 11.1707127862145 7.429741808800058
Rh 9.480176871871167 9.533387181859469 8.870581139947834
Rh 12.13451860018769 6.003215382164648 8.95422055851952
Rh 12.972041834196052 10.837805969461737 6.856314213561768
Rh 4.445979389420612 8.733890713031267 8.830699637162601
Rh 7.7928141661829455 4.774390037487233 8.890575338712125
Rh 6.069295369236037 6.7181320846743855 8.775427004680148
Rh 6.560210422614908 12.81055579484303 8.773392008769134
Rh 10.203649469648491 11.971195389744373 8.935771223212775
Rh 6.933423461890099 9.203934942068859 8.859146021052204
Rh 10.879290632759142 14.395205589935797 9.140344898487088
Rh 12.17573334880669 9.949299953271966 9.050456608053487
Rh 12.714032279007945 12.502964564587854 9.301908497124261
Rh 7.962676053416897 11.215928413869484 10.169879959788881
Rh 9.929860200691929 5.489557686293373 10.20990619843044
Rh 8.663587921244108 13.702658434351408 10.310347600932102
Rh 5.278854515978326 10.831178723246476 10.16994663314577
Rh 6.434296642018941 12.794535166962223 11.43245518254625
Rh 10.902991829520957 7.883619247279726 10.338323065531204
Rh 10.319919875056335 10.41925578805468 11.100904629063407
Rh 5.714936926509397 8.299038095833525 10.969667930436858
Rh 8.357381401899374 8.69146519409684 10.985975603168699
Rh 7.553830820707667 6.243180905090209 10.970973692692835
Rh 13.425562388890384 7.8809233861832135 9.94499728872823
Rh 12.813797026522723 11.027253107631608 11.356897510402566
Rh 10.997170864594796 12.987366986151288 11.323829251807462
Rh 6.745399361034731 10.351305959343303 12.342719693044934
Rh 9.643752300540983 7.057769996791749 12.483981612017146
Rh 8.764605709103279 12.136710398819424 12.47031179293846
Rh 9.067286750876262 9.619358906223905 13.359764448724365
Rh 11.492835973433875 8.745920985368233 12.741703898398477
Rh 7.133758640464987 7.851789106582686 13.039318523794368
Rh 13.259675167479266 10.268891842694881 13.80900239185471
Rh 13.994511979657705 8.83340626052734 11.982512448334704
Rh 11.035676361413138 11.348062297989198 13.359575099143333
