40
Energy = -234.59473085 eV
Rh 14.274603568019709 10.760615806433824 10.839806606012925
Rh 12.635708402154238 11.077174885709107 6.0003614164959815
Rh 11.249357441705852 11.193193515755102 9.874151902194397
Rh 7.596192335687606 12.42125075090631 12.284391915961102
Rh 8.550237946311874 8.81435148323413 15.071903562125202
Rh 11.857787554815973 7.0991338295952975 11.55039380378796
Rh 8.812025686015662 15.220744698797704 10.551932498741618
Rh 12.528477533841032 12.04217049564472 14.073747717372063
Rh 14.446158955045371 12.894886442073009 12.378254134779501
Rh 10.550425187103468 16.120323864184424 8.954173363168689
Rh 12.0483627436136 12.892861384675058 11.674824598827609
Rh 10.797877859118174 7.478720589683115 8.926036396034505
Rh 9.664191193151758 9.693418356879114 8.469772047404676
Rh 9.166557209785696 12.811870975681746 10.220329768543904
Rh 8.34017932987893 11.182917787196029 14.366126888455101
Rh 14.109810141814418 8.396984074058969 11.963895049054045
Rh 11.229936483535193 15.358259081425304 11.266012931402921
Rh 8.113180133903084 9.34748288298278 12.555354693907022
Rh 8.265477196281356 11.73906978543725 8.08463237370411
Rh 12.655483879761393 8.867489378139933 9.899225356259592
Rh 13.42027476676232 10.96095668970126 8.506128506176164
Rh 11.920866795962414 9.225203825273502 7.430650659882775
Rh 9.8792271318695 11.222539336596748 12.202747411959017
Rh 12.2250865305469 10.18533738073733 12.207759501577579
Rh 10.176589347726043 8.912205894000975 10.949536874053193
Rh 9.387673763297851 14.046818566355542 8.049615491688737
Rh 10.703814426633665 11.89092772781414 7.436337509664338
Rh 8.170049085234803 10.506395000608816 10.354973477363268
Rh 10.00477231184972 7.824765095369451 13.281136272378303
Rh 10.21513998987267 12.746247502012428 14.740925755504524
Rh 14.549419400704751 10.613372814735994 13.418793802821014
Rh 11.573850699250919 13.842812945228008 9.267402324063104
Rh 12.944797242308828 13.151706805732095 7.366823975674803
Rh 12.347166536241248 8.127974491477808 13.876102688617436
Rh 9.66937494170937 13.853277953204579 12.58822285116569
Rh 13.9201981620984 13.083162098342097 9.81069899629876
Rh 10.71926194189606 10.1001849425003 14.44257204022832
Rh 14.77437421899893 8.321135296175315 14.424552228911962
Rh 11.897914163673848 14.484020133424115 13.704146194196788
Rh 13.09594947679884 9.975867147198613 15.423378128523819
