40
Energy = -234.86980157 eV
Rh 13.185572848714802 10.335931868193661 7.880695050768981
Rh 11.085749861195067 9.356288681637581 6.733539294311493
Rh 12.03052341545625 11.6550852359527 5.94074796545185
Rh 12.588859585309423 7.723094956409198 8.1113546711834
Rh 13.63761191793135 8.981265157134137 10.037198889684227
Rh 12.90428146978439 13.0492208028393 8.082632773173907
Rh 9.509640645250219 7.213473201053682 9.438971972460429
Rh 9.459118783395892 11.317135061333586 6.048439067680706
Rh 9.792110376175396 6.013165448400586 11.835161732662483
Rh 13.133048989423145 11.523108616797666 10.143102565180143
Rh 10.935675922118445 11.512821630364162 8.345549156899734
Rh 14.811015867611909 10.439796481840013 11.808251494591765
Rh 8.907656374452973 9.844236512958522 8.041444121379442
Rh 13.559853913062728 8.371822638413825 12.49996485031299
Rh 10.516516831263848 13.56914947721603 6.758877251913436
Rh 11.84280674594182 7.258761007830363 10.831643727636582
Rh 11.0790144016202 9.224036921060046 9.403926383201954
Rh 7.636599733234078 9.030161783782617 9.88195107803976
Rh 7.457394623330149 7.112154550557658 11.455690357864578
Rh 11.687929965077144 10.156118681274018 11.867741528927471
Rh 9.411280992422345 10.951566042491644 10.408657385987723
Rh 8.605116588717621 12.518238558770326 8.344381362066708
Rh 10.651430647056754 14.023565386739799 9.165764309846084
Rh 12.925611284895941 14.044041701425918 10.54205340426081
Rh 5.584008935761869 9.024693381880542 11.2204037071908
Rh 11.294181129387873 7.698575009180891 13.376118742188117
Rh 9.667732266373983 8.603339054860857 11.569406598077757
Rh 10.986607169383674 12.692587132851543 11.420342673658077
Rh 8.704911125160567 7.401021472618001 13.719108664533056
Rh 12.496704007069185 9.94357857962306 14.252456099675424
Rh 10.588897119901649 15.270919437429598 11.246124954775958
Rh 13.27816789300851 12.162428031727888 12.63745653844753
Rh 6.954613333965757 11.308323306649838 10.888044889608569
Rh 8.584121712017986 13.465883948500482 10.762667816023848
Rh 12.097872570368203 14.308817228923122 13.152949503594845
Rh 7.563238722873609 9.516760783042923 12.693078766719596
Rh 9.883091222854004 9.76445977040205 13.93358565670354
Rh 8.724239080621103 11.7408626012451 12.746870107736704
Rh 11.026432104649006 12.04790183029572 13.925962645613092
Rh 9.511351212215862 14.078128549298997 13.265910342564947
