43
Energy = -255.55370087 eV
Rh 11.64724195379797 14.394229206049124 11.34969729802549
Rh 10.050917650548078 14.38122859539818 9.27716302209905
Rh 13.156516371419006 14.56543026904667 13.379955999836405
Rh 10.590363976822118 14.801552811051748 13.748569470734113
Rh 12.37960279053975 13.11863993360048 9.29666859959838
Rh 9.455449117635498 15.604900292714877 11.567345721447266
Rh 13.922793524429387 13.118237984331506 11.428262974662857
Rh 7.707225778425707 14.268120154655882 10.278828406234524
Rh 10.613044590039792 12.350552004012265 7.498200806537795
Rh 10.132748436625462 11.98813028607104 10.056398743705907
Rh 14.450270339591343 12.287833281556209 13.73274212600293
Rh 12.044512794533237 12.568323566947246 14.544039319894262
Rh 12.322994106082998 11.208730382438166 11.279580095575827
Rh 8.21886878499603 12.529019221216242 8.462315954287579
Rh 13.135100444921486 12.053915654801209 7.089395571034592
Rh 9.433659195801388 12.79657019648707 14.902780723442758
Rh 12.085590015099596 10.487633848195445 8.738113283373607
Rh 8.259318540324916 13.642840108694077 12.725079700140745
Rh 10.505635903410512 12.542601314132417 12.580605013917571
Rh 14.376223083309391 11.521221047395219 9.380789064952957
Rh 14.7733924678411 10.513581960997595 11.729125430224533
Rh 7.81265148187977 11.80813601758128 10.938365025122955
Rh 11.32008510809539 10.025683451574414 6.407750360877157
Rh 9.89146522953454 10.142059998773458 11.860285860411734
Rh 12.888102657338525 10.332946185790016 13.475828296967938
Rh 14.058176710200808 8.997297823271042 9.732937180898713
Rh 9.64432872326796 9.542563807914068 9.33955587742597
Rh 7.195110038484788 10.162200645315949 9.081577753416228
Rh 8.11226390933681 11.083399413806813 13.422683842516875
Rh 11.743122072359087 8.632992262746658 10.656294426414734
Rh 12.08447087041437 8.117893472750046 7.99422355585282
Rh 8.947058289397095 10.44273099277976 7.188937451907264
Rh 10.476150379709232 10.464535806566595 14.414926353425015
Rh 11.313568286015325 8.315080967974229 13.270238015845747
Rh 13.191575622361476 6.584425597833957 9.686311290134599
Rh 7.543106113591889 9.262945317510471 11.472923457285518
Rh 9.488707296214981 7.546935856133469 11.517751049134025
Rh 9.651176413047992 7.952616054966515 7.308732862769941
Rh 13.672983103752983 8.184200550005617 12.227268547370524
Rh 8.762180418555147 8.581406827969408 13.75118884430575
Rh 8.037501941695734 7.548924562506121 9.423300440507923
Rh 10.5256478074137 6.640376080791887 9.38659528826459
Rh 11.732352921706633 6.240611446214556 11.749922153982904
