49
Energy = -292.34614511 eV
Rh 9.428174474930529 10.783255671521323 6.997130743207738
Rh 7.140423543999488 9.26404876517077 7.406790395587588
Rh 11.787070174822505 11.912436127362398 7.271400241743584
Rh 11.892351140300711 14.178244559588 8.473705454072853
Rh 9.819467257858397 12.674699970903474 8.696769977222539
Rh 11.689148044818323 9.33271282543356 6.940144262767276
Rh 13.473154586827631 10.596737873215886 8.590812859123659
Rh 7.61598173554854 11.42351850963922 8.711751818687977
Rh 9.419632653447017 8.432071072669848 8.027551497220236
Rh 14.199123359559705 13.067777499676561 9.03985456285326
Rh 12.942536132316638 14.83297595704546 10.642262663383233
Rh 10.444337548202872 14.271290816414746 10.651285810014926
Rh 7.461181918693831 7.224995293831637 9.04555772931512
Rh 6.146566821030084 9.346272311942316 9.794762468913735
Rh 10.91701923316899 10.253227926849592 9.22858284696566
Rh 12.970104250193724 9.066378179450558 10.56660456546511
Rh 8.569802491614297 9.681175374747271 10.141942706070752
Rh 7.963840759441924 13.44528798533981 10.42529571372878
Rh 12.195515150512714 12.243807392721001 10.328270616745359
Rh 11.721802736177102 7.688562791357344 8.912132525466905
Rh 16.658913156633318 12.204570592220225 12.166359679977075
Rh 5.834227174372844 11.86560086376603 10.42926367007991
Rh 9.698630276084659 7.311447620104004 10.408316029426778
Rh 15.437541249849653 14.098883286743531 11.01204646712039
Rh 14.693242671639862 11.123649851407771 10.791654551563543
Rh 7.496922620842708 7.9527029406617125 11.629185811353318
Rh 9.687005698383931 11.741085783326753 11.117032350784736
Rh 9.532973412341521 6.6625108643672615 12.82912276119546
Rh 10.625073687688069 9.379381583571694 11.788189384169337
Rh 13.725578742471221 12.988511500076397 12.365973111021507
Rh 15.224557169151375 10.233641974446135 13.127724735235308
Rh 11.893133833655984 6.902580913116387 11.559727429574155
Rh 7.170134265152435 10.457937929793262 12.06207356933068
Rh 14.33224149321893 16.12673837721115 12.203221333337819
Rh 13.739097269017181 8.225277910958573 12.826041968278204
Rh 16.236082777047443 14.649458022906666 13.350950360902631
Rh 6.779533839558 12.950032486474703 12.56671150046232
Rh 11.664247365938413 15.324134142999984 12.81080984797442
Rh 9.071908720012518 14.320912757890158 12.72328721755103
Rh 12.75032292865316 10.666149016845418 12.53354743908441
Rh 8.82172758303527 11.763107455812065 13.48636525995727
Rh 15.314564305244668 12.472241362377511 14.261223390853495
Rh 8.853676331761541 9.09209895258347 13.516545601070243
Rh 11.373615962532153 8.067973056946476 13.87315342365554
Rh 13.775057726715213 14.640073028623455 14.134264991842178
Rh 13.228493061427315 9.658898751976494 14.887824542875592
Rh 11.155736044289046 12.875700025180835 12.92111512124701
Rh 10.875143092382041 10.57416193920929 14.257662365211457
Rh 12.834529367150699 12.232205943238078 14.749142466023722
