43
Energy = -254.71341528 eV
Rh 14.467930293989644 10.462211974159942 8.138079566637845
Rh 14.216764484057185 12.859402798677245 7.350260807633418
Rh 14.22889714323182 8.886983071379687 6.146709166776577
Rh 12.75379083015419 10.963140142779904 6.281138376211167
Rh 13.08666412179142 14.63464445767135 9.065890021417944
Rh 13.724389481824833 12.25376948083398 9.802530441042634
Rh 13.96158784758451 9.706793777425291 10.487480693048077
Rh 14.02869309013783 7.997420551063771 8.529408677436281
Rh 12.997970891244728 14.033258201198658 11.565461144504306
Rh 11.899505923650041 10.350762397124486 8.99893002123667
Rh 11.921691353517135 8.592340667055725 7.156791371998783
Rh 11.759166367378283 12.696015542699325 7.986667464619836
Rh 10.336339417390167 10.749473749643224 6.977097248983737
Rh 10.618524874601263 14.417546008191918 9.476895129811592
Rh 13.470030146909714 11.521517151497195 12.299173280647892
Rh 11.339509093198762 12.255192318081022 10.835509392519429
Rh 13.88317208992767 7.204298603336989 11.006673410027407
Rh 11.559627782965707 9.670317157109887 11.570641190553976
Rh 13.691385844559182 8.997443196884184 12.905506294641045
Rh 11.709080590648886 7.843185216565627 9.677047158831542
Rh 11.595743805132972 12.946895999313222 13.408057909894083
Rh 10.594888988388343 14.893496850535682 12.01821681649934
Rh 12.161294016255436 7.895947822171894 14.539915130094174
Rh 11.629677660313403 7.132662410488077 12.158865390146556
Rh 9.160237012483677 12.497288878469668 8.497307763388593
Rh 9.618418323561755 8.715997599019287 8.417113500371208
Rh 9.46743657224062 10.573002354339222 10.151494898307655
Rh 8.942532773359135 13.237544257638096 10.974600246436463
Rh 9.445086676145172 7.993179139395667 10.933475792787265
Rh 9.001015729567095 13.602077363896619 13.561185490663163
Rh 10.02884586695233 11.979417494129976 15.27026803053958
Rh 9.679411842389516 11.23980347286705 12.753163509721862
Rh 11.831146669453942 10.426288769377146 14.077358008509403
Rh 7.8587050014827495 10.493016760350281 7.676381892520083
Rh 10.017167897297286 8.645514010258436 13.406976889338488
Rh 7.13850094382579 11.693447303553867 9.896179348758587
Rh 7.311641677895221 9.061866816931564 9.76385057109207
Rh 7.17934445851592 12.062015534874748 12.47268304500108
Rh 7.8071145112905205 9.476997567150347 12.253138845296231
Rh 7.410667015208674 12.282851009073438 15.053284044353902
Rh 8.454408143516318 10.034519348981341 14.762584345881333
Rh 5.577150675965243 10.350232613214146 11.368508093868265
Rh 6.063244447794992 10.298622538390651 13.955901955750454
