41
Energy = -242.7994329 eV
Rh 7.159972137463943 10.30618193594215 13.162449952291027
Rh 7.551701162016223 12.763316239175664 13.620986834326754
Rh 7.249502244115449 14.408190623579891 11.635467530997856
Rh 6.897633525996668 11.91677260768469 11.126961018257182
Rh 9.45912238068535 9.956430434184538 14.249196261872202
Rh 9.896658740771061 12.440313519943404 14.608362079336194
Rh 6.729368781410382 9.372905937162647 10.751158602172655
Rh 11.625232165817591 9.53044078807852 15.482422115637073
Rh 9.325977241947673 15.73526153267953 10.672482036831667
Rh 9.596855574804643 14.147450686697274 12.660614814399297
Rh 8.985341336062428 8.896103501563612 11.864930982773291
Rh 9.276358391412499 11.529002900711404 12.149171268990806
Rh 12.237535206848571 11.937405939658053 15.56139790626153
Rh 8.939158019376226 13.245456230831698 10.134062140231714
Rh 11.645371922464149 15.387446291194726 11.697848070596486
Rh 8.722341969837336 10.601648530723505 9.713227350145074
Rh 11.192094562295717 8.412525763740193 13.085271495948831
Rh 11.71220617068424 11.039275523127381 13.179852962681654
Rh 12.026615745499711 13.634487194936582 13.607403488909084
Rh 8.582251667147839 8.052863912448787 9.451180134574049
Rh 11.357114013221034 12.807516072376178 11.191061657385916
Rh 14.132270576005023 11.934790447981923 13.610491768281038
Rh 10.994789607371144 14.507865778377123 9.197871946195825
Rh 11.093619310671027 10.186994068344312 10.775910887081903
Rh 13.753508169285395 13.851852816593265 11.710928999614644
Rh 13.513821767728624 9.317071977096296 13.7790380550814
Rh 10.839810295919893 7.633525668576302 10.566208825485312
Rh 10.750307183943352 11.92516503220546 8.738927400500094
Rh 13.310027297439593 15.51680111273024 9.79150777116357
Rh 13.100089739284533 8.59817944521948 11.348796063807635
Rh 10.634825089651354 9.25001629066906 8.421164996783025
Rh 13.502965816685052 11.261397733735647 11.15742250934796
Rh 15.855366795985637 12.276232765345007 11.642164694062018
Rh 13.1029824532665 13.015024297685628 9.190301056858878
Rh 15.338541736571331 9.85778268941885 12.194844145930672
Rh 12.913514075674678 10.406173633435351 8.794965585121401
Rh 12.795337283678892 7.846075370570345 8.929071388125184
Rh 15.418734090907694 13.985175259178478 9.7677200512283
Rh 14.996961526401464 9.054131064731626 9.674678714051602
Rh 15.198328858221435 11.529303026607659 9.16039036946724
Rh 17.0499110110334 10.348696397564604 10.370796646872398
