42
Energy = -247.85873029 eV
Rh 13.155001873258849 11.24621356793078 9.509248080993867
Rh 14.557936861623906 13.237889984388895 10.349748551445193
Rh 14.81504686140189 10.880740745527 11.42826608177868
Rh 13.748876342441042 8.77100004916007 10.354021187604474
Rh 15.426408355276312 8.567383844476817 12.214643266945133
Rh 13.15176953849165 13.446904900542293 8.155280493591038
Rh 12.46231832212708 9.129216036258514 8.24301128835281
Rh 14.859600810384265 12.880452879033903 13.037171414664114
Rh 15.362987226945934 10.550004388637678 13.93034063031317
Rh 11.9533170137538 11.364747894729312 7.227503972004637
Rh 10.69644321000027 11.540919545368409 10.136375870913968
Rh 13.466004894218205 8.956036930735744 13.68945322336214
Rh 14.03706644163044 15.124371801668554 12.135893167969693
Rh 12.404991286325123 14.784833556242063 10.178897887815335
Rh 11.392831365621497 13.565878525469278 6.23459278850847
Rh 12.986722867244238 7.118152169270675 12.021297696384405
Rh 14.874776300971792 12.44128506628015 15.530280769131062
Rh 12.528964740728844 12.909391548530335 11.91479523827584
Rh 11.200057972387203 8.31659628118823 10.439862947823942
Rh 12.239008730099833 10.278160902677772 11.869910157262728
Rh 10.126724673958913 9.958840584919018 8.396748218723411
Rh 12.923026283301358 11.517175464498168 14.179658769221339
Rh 10.677732598390092 13.656775746068012 8.68304192484147
Rh 9.477506390362018 12.10015283026837 7.120670322842031
Rh 14.20253396228789 14.746546670838152 14.65162830087716
Rh 7.715483900577012 10.56657404044617 8.150332247733159
Rh 8.674300360234101 8.46423570170759 9.687759622796154
Rh 11.038659316175123 8.387023585825336 13.177024140142075
Rh 11.465922006139053 15.591990526720394 12.448255457268417
Rh 10.355538227068568 11.876623557428037 12.7674929236135
Rh 11.664556773487504 9.694757221061563 15.372364047167988
Rh 8.468588798392794 12.580496936753208 9.592664778547396
Rh 10.109811847702897 13.925948096439166 11.154273079173533
Rh 12.014594020607435 13.999464763480518 14.300844702228188
Rh 9.416147623591064 9.693317131416237 11.737355486191095
Rh 7.391650418624647 10.537097664872194 10.607960103882194
Rh 9.55990839845501 14.125378343076687 13.75554143189825
Rh 8.042077586799149 12.584640420191612 12.172408960321425
Rh 9.45209567628997 10.107895659092344 14.278655172912298
Rh 10.624180322093267 12.174849371082955 15.30903329068097
Rh 7.251108618747296 10.361124509313477 13.10631090845049
Rh 8.023901873373191 12.235091247973049 14.745562086936971
