48
Energy = -284.12150279 eV
Rh 10.0848495698063 12.299740826959678 11.445537750766771
Rh 12.777879055059255 12.053016272887675 10.789108448270968
Rh 12.065068741399537 12.442946548149258 13.251952518858971
Rh 7.419597356385779 11.968858700637677 11.655195216505701
Rh 6.482618621331209 7.785032243810848 10.637175452242705
Rh 8.715372371643173 7.251322218241156 11.931390525523296
Rh 7.635488781766315 10.033369145171697 9.932388786191217
Rh 6.672856593709639 13.156283149248722 7.295746966402286
Rh 5.536502589893357 6.75289587862584 8.309253012264806
Rh 8.302494930617057 8.535260984098889 5.5762638058696075
Rh 5.9622437154054975 11.911316475708764 9.394923078727043
Rh 9.8614804357153 11.318434850533759 13.950334518044166
Rh 13.086612438873306 10.921976580499079 8.415163079722069
Rh 11.015794252416644 8.812199979329117 5.8035927635451765
Rh 12.20019661508406 10.271227319462302 14.677858320671602
Rh 6.740031820081799 10.45835452482337 4.973070897118189
Rh 7.554691668528994 8.18046969857105 8.271987879981083
Rh 9.257057107861712 12.660047197436413 7.00636905330891
Rh 5.260496288186091 9.353685575705804 8.83371982851273
Rh 13.082938329569345 8.36220195298976 13.019713115360316
Rh 7.405023934622734 10.81731413129705 7.348526220548518
Rh 11.058518861931532 10.535033053764023 9.773041790022123
Rh 11.422199981685871 10.129495629876454 12.264794786515006
Rh 8.895082986106678 9.974517256830085 12.065870377186043
Rh 11.887755286610997 6.287184135982304 6.943704903564985
Rh 8.527332065022588 12.405947539844677 9.385101279711087
Rh 13.970165379899836 10.74412689487894 12.765836598420332
Rh 9.698968131264905 9.995973694241187 7.7929242431791295
Rh 9.76501770154268 6.446767340585916 5.197149885278262
Rh 9.513117622538715 4.959600820353176 7.5284199555658535
Rh 13.23197627781677 6.953991846995995 10.052276854875652
Rh 4.9627692732371536 11.079936000674797 6.988925697162224
Rh 10.183021288232084 8.497698027280407 13.710956519092948
Rh 6.966886334470181 4.668833351005284 8.368369794631809
Rh 11.502929060434703 11.354496101151394 6.552073407995061
Rh 9.754531379781799 7.411420868469984 7.474626864736391
Rh 9.331872667028806 10.799164226088648 5.305540437293095
Rh 8.4026586371891 6.0897930631638495 9.697146427792022
Rh 13.247108078550172 9.383741003293549 10.568835675242317
Rh 6.9246315204173206 8.80139733576327 12.916396873838712
Rh 11.274661199336816 7.4121283148054 11.605898236618955
Rh 7.412061197692648 6.291561436961351 6.477755123486736
Rh 12.045503252005727 8.507598388117955 8.333438348006153
Rh 5.4476966723516425 10.141393729237976 11.270152508904863
Rh 10.978950142101413 6.1296759393628015 9.36835274536073
Rh 5.823087259081914 8.549146114079111 6.404547353863296
Rh 11.05474355089934 12.780838053893781 8.857854936673094
Rh 9.683919980939994 8.409046585237764 9.897198142674378
