48
Energy = -286.0260448 eV
Rh 15.885280095928096 13.128516412944219 13.060999710442156
Rh 15.230299545770354 13.014756083132799 10.452271723885701
Rh 15.464297293930445 10.594005095641066 9.451729534336165
Rh 15.271373049287597 10.957843164133967 12.04560653263397
Rh 13.864379730746855 14.320687891754869 14.241808804473026
Rh 14.56051330650218 15.073659247798455 11.84367257714492
Rh 14.092616133512411 11.68022917772905 14.307109606001765
Rh 14.995797263541707 8.589976151122036 11.405340184724553
Rh 14.237343808467639 7.996759329099861 9.135753183944262
Rh 13.310806034112224 12.725687177742966 12.101551406557308
Rh 13.764015575609239 12.33527304513567 8.563335188210914
Rh 13.75072044829061 9.893221340613062 7.575891472397637
Rh 13.37495558128144 9.45961023685551 13.118281793721406
Rh 11.741227773401855 12.96352226837654 14.240611692423562
Rh 12.899062880849666 14.381562714046783 10.030190301239491
Rh 13.147018330449203 10.259568430980261 10.437150235004863
Rh 11.970933018029433 14.844159037352167 12.459813109732368
Rh 11.045039706253748 8.45599680205302 13.319758703421769
Rh 12.379676573590032 7.862324052956817 11.128072979911153
Rh 11.384164810754264 10.97201446447371 12.561974131477355
Rh 11.85660559022859 10.362193853853261 14.94561671265946
Rh 11.822861104629192 8.400578202814383 8.587811005537962
Rh 11.455991509184157 12.285434652095908 10.38705055079536
Rh 11.562173967779222 10.947737274964911 8.321655241122606
Rh 12.668868381671858 11.852489276521238 6.2536522718799725
Rh 9.358997216782468 9.169268625745495 15.116034233885921
Rh 10.529068498430734 9.75474381295141 10.455570240423217
Rh 10.15142200847886 7.116956719257185 9.836768951733683
Rh 9.686005518152992 13.897980311180023 12.982632965536105
Rh 11.349606757665052 9.51509939017467 6.314351048923318
Rh 9.28393995437493 7.184251129373121 12.199845066877785
Rh 9.314570774627907 12.430579801949468 8.767758118001638
Rh 9.60364050738327 11.598687269051396 14.37302031944987
Rh 10.239290147939226 14.4546628195613 10.476578606297156
Rh 9.150558203278234 11.996895422971908 11.466618707774312
Rh 8.933460193341826 9.695805739728247 12.572417005013634
Rh 11.507633847012563 13.57495046496184 8.018253117813437
Rh 9.284698578395714 9.729213080096901 8.165861093583684
Rh 9.996484066196643 11.753324195174411 6.496161310247587
Rh 7.394536261170111 14.66912311196349 12.330449173518648
Rh 7.491722799075119 7.94828884903794 13.797820277160495
Rh 8.195594826114949 8.618583236638992 10.295106302481537
Rh 7.1906443445611234 10.559047530054103 14.242788303531214
Rh 7.491313060224298 10.968090805188158 9.77631649067461
Rh 7.655911879008936 13.155304180338492 14.368703351003461
Rh 7.646693502329391 13.588369363610166 10.149397407241283
Rh 6.79489794344657 12.161744272291912 12.204284687514601
Rh 6.513157857213195 9.64990794027365 11.91042976731533
