49
Energy = -292.95166376 eV
Rh 10.592728310907999 7.530326421500655 7.197157671581744
Rh 9.799181177131462 9.989032505384113 7.067337696197827
Rh 9.947873738106209 6.073632897229665 9.357641035979656
Rh 8.738579431576152 8.18931310398648 8.788943713819444
Rh 7.980160107635518 10.724145063779476 8.79188993720046
Rh 12.854901129492902 8.909770119933865 7.353255832129094
Rh 6.673414883933406 8.913819365810966 10.12076292079387
Rh 12.007937910435897 11.275765959464799 6.924099736988859
Rh 12.306695904365599 6.99228442431346 9.034769322431556
Rh 10.992971685909213 9.281459679512611 9.178683695938682
Rh 10.033836726940814 12.198217473421881 8.317706722023045
Rh 8.375386400995374 7.356504040124567 11.270953609588892
Rh 10.923166878477895 7.5050361330724344 11.206488392102814
Rh 9.113175675387076 9.945995448754212 10.961405853035012
Rh 8.180893202257943 13.158689367494548 9.790200017866574
Rh 6.826202388556264 11.321263795445223 11.045589725899786
Rh 9.980373470515277 14.686226345317515 8.747151214139587
Rh 13.555180552530794 9.174505849293743 9.814640015404354
Rh 7.1969638667300275 9.305061124991452 12.641464196660868
Rh 14.332493922289606 10.921296702979669 8.012766320626225
Rh 12.230603133548279 13.649841922153646 7.828529261868629
Rh 11.697949376050097 10.055169478858488 11.561375018038689
Rh 13.436834440092703 7.209866897284692 11.409791868539447
Rh 12.28888391703093 11.580761973311592 9.481821995940287
Rh 10.270950245335353 12.248755587943252 10.923762356944119
Rh 9.57957449724286 8.503630661364665 13.19818079556598
Rh 16.316445811095605 12.18729194571444 8.8035650507362
Rh 14.812219310987757 11.265638834945152 10.562030865438167
Rh 14.236416215939672 13.523413892566326 9.371441681351781
Rh 10.012057443284966 11.079318465308804 13.278930919033094
Rh 6.563365810055581 11.581286166825794 13.726587126154058
Rh 8.17794048226736 12.953982194179517 12.389295525113353
Rh 9.547680571140143 14.861921694307233 11.323207633913054
Rh 8.261121204882945 10.087414149396409 14.858110117688865
Rh 11.913432651969387 14.343953700640212 10.315598500115824
Rh 10.815222356035383 9.519112635520827 15.194381705687492
Rh 12.15921264991827 8.276250653127766 13.382407264115024
Rh 12.680986753265357 12.426706735465114 11.916809094051386
Rh 14.227123379148054 9.520346416184264 12.284701018334555
Rh 12.73514185895334 10.787976644803773 13.951772863215442
Rh 10.761499661753662 13.591906362629874 13.318815922324156
Rh 16.051987185973626 13.353490961741784 11.190926955332964
Rh 8.677124875124417 12.68304448675934 14.85222897380931
Rh 11.110940739331776 12.142735792107837 15.413506468851441
Rh 13.945481832371337 14.567809863102427 11.823907190465114
Rh 14.912412566723411 11.925180740175618 13.032954591615923
Rh 8.712625290024466 15.036389765324365 13.720584978190107
Rh 11.814254710731687 15.663047107736073 12.511101161127995
Rh 13.133697062164902 13.409161821208775 14.22945562400086
