48
Energy = -287.42508769 eV
Rh 14.074904900369562 13.164878533748992 8.44703370822514
Rh 15.12243162191752 10.826845760252395 9.50811564710499
Rh 11.284845521638262 13.208067719741146 7.559196842640863
Rh 12.947273449978427 11.131746549328938 7.837026710562192
Rh 14.013429762196598 12.606750525177125 10.898381344376688
Rh 13.263657093756118 14.751192553853206 12.04304123408302
Rh 14.747619856514186 10.489398762801713 12.305626281390875
Rh 12.16525581679068 14.091718949663607 9.801801330408002
Rh 13.74704358139385 12.58587962513962 13.482964905296102
Rh 10.5180612939387 10.83061582202456 6.719989399278906
Rh 14.886900245741614 8.465247359814628 10.72359865406475
Rh 12.891671108313353 10.300721434965789 10.501261228490996
Rh 13.737242995256572 8.679362698056513 8.485555554486925
Rh 9.573243834707252 13.914617199199165 9.499274190016086
Rh 8.775901781679513 12.455100230699225 7.516199227803537
Rh 13.886956821267397 10.34123501457418 14.746614953993474
Rh 10.941743759548304 11.802183148970537 9.65968178564647
Rh 11.819138727456124 14.269345544773682 14.0840422253076
Rh 11.585501052691638 12.642264946630135 11.999615161481042
Rh 12.331112805666649 9.054926577382169 6.418972868955989
Rh 10.515284473647979 14.884664062806166 11.75588590679159
Rh 13.564112888999343 8.22077822106765 12.936138322072656
Rh 12.104350174921926 10.267108637711955 12.921485141884546
Rh 11.558058055399417 11.811219999139084 14.805655482813984
Rh 11.581224686136219 9.137228658404984 15.06586191355404
Rh 9.925671847598146 8.566119259482731 5.763665807416447
Rh 12.437698082400791 7.699385708968683 10.559251251501452
Rh 9.118851828774046 11.705264758404953 11.53307074363731
Rh 7.9684625149837744 9.976156480774497 6.861390518747005
Rh 11.212572885665157 9.39213419926673 8.69900051308962
Rh 9.569250098597598 10.48791392344089 13.770602677738987
Rh 11.598284172985737 6.9931299045962865 8.192135464925494
Rh 9.625042945956713 13.191791550252695 13.63657127840192
Rh 8.806167600845363 10.390890685838812 9.184702107757776
Rh 11.015456233785125 7.793980748169838 12.83157363313074
Rh 10.405642955114867 9.550029070828113 11.091825078359943
Rh 9.224870503844167 8.011512767080081 8.063064684615746
Rh 8.036460891499654 14.025959280961748 11.63558811315907
Rh 7.425772018568181 12.476903895084973 9.658607572630793
Rh 6.972872073164326 10.278158222342928 11.40343439465581
Rh 9.915777071414123 7.105812292263005 10.440777785089569
Rh 9.230919740450657 8.143507605246224 14.67252053366201
Rh 7.373456649128736 12.08033252652303 13.320344879237444
Rh 7.602329177884272 8.290752474058356 9.930115834273987
Rh 6.288394755416046 10.307943339829432 8.8012198137222
Rh 8.476179933870041 8.304175535104312 12.289179217086158
Rh 5.764103201971132 12.539589258336404 11.453469216824956
Rh 7.146343893932731 9.661283168044568 13.92348460961031
