48
Energy = -285.45140683 eV
Rh 13.449417948329614 14.191630663971447 8.389926711323257
Rh 12.52469942072459 12.853840734982665 6.475823701759077
Rh 14.388034812445225 11.716395692862482 7.91394610806066
Rh 14.224959943454987 12.796577206616533 10.250525034855404
Rh 10.690416268366072 14.631333923815578 6.628478011255219
Rh 14.076220430969773 14.093338910226787 12.37508553990703
Rh 15.545715964758982 11.794498607537712 12.137482012179047
Rh 12.000692583186618 14.146107689745062 10.827726473681976
Rh 14.567736598234701 10.231254775359075 10.262831124109423
Rh 9.897967303180835 14.96466944635856 9.588677507405068
Rh 10.228925817965802 12.25476602599373 5.712291363461623
Rh 11.190497399972491 13.150550859744326 8.59579757944298
Rh 12.266979813303966 10.35892912699198 6.656068435147208
Rh 13.782081467454365 12.081595487333834 13.909623694874902
Rh 12.354985233290616 10.985719848619842 9.129200082608937
Rh 11.786053284545506 13.733944094154877 13.504812218377333
Rh 12.402939959881655 11.744303484834948 11.767983580035214
Rh 8.803552448459119 13.208785255015716 7.738841069070569
Rh 13.995854493924467 9.76610821817204 12.679870773991695
Rh 9.703667424869288 14.374944814711593 12.114823452600332
Rh 13.737368992703788 8.958042977528178 8.32219741843622
Rh 13.696851810620418 7.804374276596644 10.901971723960937
Rh 10.158209379072224 11.466184969517709 10.36009632897032
Rh 11.74099490562325 12.353911958270073 15.610608853625271
Rh 11.940972453828811 10.31370499716139 14.102454196715053
Rh 11.259428719068861 8.611882610955043 8.494073529595145
Rh 10.00428125016834 10.835489170621608 7.734174960310869
Rh 11.787325546039126 9.394727822839352 11.03768783492996
Rh 8.292689025709592 13.126326498203694 10.208397482360011
Rh 9.985785986288105 11.908597297672761 12.871417829941326
Rh 11.123786562249178 6.959156870120978 10.86890382825958
Rh 9.494005710306917 13.493903598034924 14.630298873912144
Rh 12.220417952331884 7.903573479772007 13.06075991519758
Rh 9.37964643795497 8.898327519707337 10.370082883484196
Rh 8.675701198029806 8.706971472152027 7.95136048072488
Rh 7.586290868185212 13.015743302943836 12.653611892048437
Rh 10.79522146006501 8.299208752509557 15.160925074117367
Rh 9.749331012676507 10.806075833383046 15.299928720796338
Rh 9.868898017392311 9.395116191967048 12.851557049811865
Rh 7.681780611520856 11.015452571560632 8.712622262380783
Rh 9.680426515974952 6.538085463212114 8.706374086475654
Rh 7.751555426270309 10.783167672452631 11.229089698838738
Rh 9.708469174089133 6.933543202138969 13.164745634947971
Rh 7.717714151886852 10.725657648828673 13.743074818562174
Rh 8.518784610352157 6.585468124482489 10.916571048357333
Rh 6.907035612724168 8.73709261976219 9.895500491642036
Rh 8.29379793302642 8.544007443991447 14.879076911729266
Rh 7.564342160411406 8.391626987336728 12.424427827041558
