47
Energy = -280.02978152 eV
Rh 10.335928666435995 14.197193348077066 12.36189342598073
Rh 11.829299084088506 9.587428763897767 11.964715317321112
Rh 10.52716207797992 10.602194828141338 15.193140638542099
Rh 10.119272728872263 13.451265926727418 7.9440250367474246
Rh 9.418156762347289 9.215070655586699 8.142992459716979
Rh 11.823271737846296 14.713583640384986 14.427347428038255
Rh 13.709543132280636 9.170261241577395 8.137125825874044
Rh 14.895357341229433 11.567364100983163 12.348112548294845
Rh 11.483264004753453 14.198932215720017 10.110022044203475
Rh 12.860309974109407 7.6475366694317914 10.413864757285376
Rh 12.611911918168175 12.096305485956195 11.219346610213254
Rh 10.35093850669987 11.89284552916853 9.861020409420425
Rh 7.249627242156808 9.600937214984224 12.371012146081153
Rh 9.366877889327947 11.34184907950588 6.706973020870005
Rh 6.025141124155229 7.969321510947379 10.928612058710348
Rh 11.608573647962755 9.75591816354909 9.448804719875525
Rh 8.213903138934503 11.163345503134908 14.077441384586907
Rh 10.268044310682498 7.448724932225888 9.97689128439286
Rh 9.635553865757055 9.083944516720903 13.404598094408186
Rh 12.684151822971575 11.178682953739614 13.844546183230293
Rh 12.654024100879205 14.152106560946123 7.868126974787249
Rh 11.690903827396879 12.43658924311209 6.2509112884607365
Rh 8.485620511875114 7.377568523191734 11.75194376272461
Rh 7.826227907613986 7.610345373707619 9.230433576083469
Rh 8.903136373881562 14.07500763423735 10.246562532669763
Rh 9.421364397856584 9.715566528860702 10.873655283630944
Rh 12.91695274958151 11.757938931481783 8.453240433933132
Rh 9.865142496207607 13.04170495560928 14.619572801205786
Rh 7.109980902757613 10.00852707661225 9.82526005751525
Rh 11.084236515105134 7.175833009758706 12.382511297500063
Rh 15.445382501732622 14.014642470503517 12.007509117624574
Rh 14.823157118478631 12.526476826479376 9.972373157786762
Rh 7.988650488233926 12.116163908192723 8.770727173509147
Rh 14.191481125044701 9.249561030221585 12.99042039381028
Rh 12.10572353468196 12.614651820613942 15.776651178923068
Rh 13.538796338596653 6.88844555963735 12.75896642354976
Rh 8.036341022450255 11.918422951591944 11.407602314209525
Rh 11.625528610154236 7.680055295376408 7.886612983633056
Rh 14.046648430563186 13.257634603523533 14.149860193290207
Rh 10.38411963264884 11.666179964088153 12.548278011481647
Rh 12.941639885944758 14.375926562737034 12.226252854245065
Rh 12.089124458370465 8.626438535997966 14.352168970946146
Rh 11.570079616381289 10.053257151822839 6.916526154840038
Rh 7.943430727679578 13.725030663826592 13.058414794759646
Rh 14.05961185220841 10.021363942227527 10.468902169374944
Rh 13.92021236619452 14.828991337920584 9.93538437140209
Rh 7.240418006606134 10.127087733146167 7.31287081019569
