43
Energy = -253.1249173 eV
Rh 14.491215288387009 13.137664204851818 9.574455291741511
Rh 15.786487247970637 11.635503841130134 8.173535781234676
Rh 15.951399373678536 11.656606512910724 11.079553337321485
Rh 15.793905982812213 11.189463027046761 13.602427212827063
Rh 13.25033130185874 15.196639969141454 12.452409156911983
Rh 13.173764242981305 14.523845098364692 14.992604753051648
Rh 13.46004902124271 11.817729305463532 14.896529775071034
Rh 13.4679622213699 11.024703568998765 10.547299993607895
Rh 12.188538240656351 13.69909343364547 8.394061929254962
Rh 14.08345731359994 12.76675851483428 12.613296787586078
Rh 15.443184895396131 13.429054815342182 14.670046209019114
Rh 15.423817805365005 9.621217816714056 9.479036790352229
Rh 13.340674192062137 11.645186141527658 7.613883492725696
Rh 15.43723861313344 14.511530366448728 11.492580661501155
Rh 15.21067998484003 15.736996075796249 13.896072918186809
Rh 13.359095022144416 15.349109826841932 10.004042751072573
Rh 13.856461008492618 9.513988074398142 13.467844505835359
Rh 15.892425670091454 9.22348509744825 11.983876698850224
Rh 13.523096576458666 8.611940254673243 11.041055623742933
Rh 9.308701042049277 13.067009474808216 12.072392205422638
Rh 8.634208154692864 11.76435556538045 9.911143548672884
Rh 9.659543035488973 8.930396414813902 15.495451755489936
Rh 8.85666084601412 13.239959595619952 14.690547304901301
Rh 9.327579662064812 15.301798560342156 13.447189132898911
Rh 10.686589481358324 14.857000235495384 15.655326501643723
Rh 9.716337165149705 11.043200272882679 13.831501642340221
Rh 11.162516373327836 11.230237884080248 9.255503548949017
Rh 12.020426805084783 13.072093410073034 10.91859378313613
Rh 11.402544249063784 13.481878318984375 13.427661196274089
Rh 11.092645593083331 12.208941084453963 15.811398294204103
Rh 9.967317580984279 10.405857978876089 11.404649199215376
Rh 9.916514618823538 13.799610881793676 9.543343537296021
Rh 10.828957147095613 15.340849396322405 11.441098961904904
Rh 12.056413550527262 11.099319712508176 12.721271651640125
Rh 11.53662813182235 8.636462054595851 12.652358880857136
Rh 9.077502775360317 8.732164735408327 13.125780297978674
Rh 11.111407563007738 8.669402219057334 10.06836852131252
Rh 11.85092277826585 9.852431795376779 15.02436139891268
Rh 11.604352445404105 16.36526770141811 13.868816044106545
Rh 11.105545123087657 15.918197577019718 8.984964621151036
Rh 13.050725312972588 9.402351481078005 8.583511844498274
Rh 8.839258751285735 11.168475729497043 16.21820959291486
Rh 9.38213752700697 13.451441690099733 17.201162579946573
