46
Energy = -273.20111746 eV
Rh 14.911248031078337 8.275661904741353 13.585496588192507
Rh 12.706715466423173 7.485493645595096 14.639230189553732
Rh 13.501489165219391 6.393787833629533 12.367393520146702
Rh 14.543754229254027 8.322558895525233 10.911244193048855
Rh 13.323517957743913 10.0347410070494 14.630919222304342
Rh 10.991702714061317 7.071061351315421 12.741449972287777
Rh 14.821773129036352 10.445684148280375 12.382679582593978
Rh 10.831392654477742 9.141272813786786 14.351905576418734
Rh 12.596920600057679 9.05719731367465 12.390331862080115
Rh 12.158611391053874 7.2705579275799765 10.4480347916571
Rh 12.971669314930656 9.334922830483137 9.118624234169763
Rh 12.671212266775491 11.25901161290061 10.816845880273593
Rh 14.993171222890451 10.758029186796517 9.850963477119276
Rh 13.032575970514923 12.166011467012336 13.31976974470096
Rh 8.930472747017564 8.495450478419233 12.781738983563146
Rh 9.527344119090522 7.245126683616039 10.56873642258468
Rh 11.19834537573754 11.627528504195238 15.038867802474543
Rh 10.803806626327338 7.996438549819619 8.424221201442663
Rh 8.775377634433397 10.643997819357551 14.25168002277797
Rh 13.295591834484991 11.211389856267148 7.521904320015618
Rh 10.707773417599963 9.527971151580719 10.579102084575755
Rh 14.696490753438242 12.8137148912638 11.490178194659077
Rh 10.95851788594837 13.696338815134576 13.285007573887697
Rh 10.75038712044655 11.15412980326328 12.609559267773275
Rh 8.409935773512329 10.543869578737478 11.35889163346231
Rh 6.661219546531234 9.709589534560426 13.065243145470271
Rh 13.455622260396385 14.598369893678418 12.922459836502897
Rh 10.809717676992747 10.594256158766452 8.163560092979777
Rh 8.582107450309156 12.709896124753838 12.754308344331589
Rh 10.161640431968863 12.141731747310368 10.239305508293853
Rh 8.624107139496724 9.364047981646685 8.992109931198787
Rh 7.154154574042096 8.398049752221144 10.87815537570466
Rh 6.249484981738163 11.945671359095641 12.081833749984638
Rh 14.278909012026654 15.184310106773614 10.534584533720233
Rh 14.023396400890126 13.04534196281373 9.042220935315557
Rh 12.053187290335758 13.927744931468128 10.731759782435558
Rh 7.700503930018451 13.070720973811623 10.3123812111796
Rh 6.610697390625003 10.816911130607162 9.591381021054154
Rh 11.550680568377368 16.03757833007813 12.082487734624928
Rh 8.510689814238921 11.817533299733663 8.179373611130755
Rh 12.916420541559564 17.249618188129112 10.227995216303905
Rh 11.614426228817864 12.988830674732322 8.268558129073057
Rh 9.526576647107907 14.589411634541133 11.329982621030638
Rh 12.84251693956199 15.28022400569549 8.449157732208187
Rh 9.438498634875934 14.16867713154294 8.753449677553615
Rh 10.774288066214142 16.06053890477397 9.668477614743102
