48
Energy = -285.0845752 eV
Rh 16.59500391502979 10.746682315508657 8.913298012603825
Rh 14.364245229239351 11.86227783517033 9.081831345858506
Rh 15.648869551555155 10.830870659047042 11.268864602410455
Rh 14.502912865960967 9.325399829379709 8.443496732557115
Rh 12.968791351239389 13.910518932995151 9.390230366965064
Rh 16.27107863439673 8.595589421691828 10.2288431094766
Rh 13.729224045882631 12.571325886673959 11.50441992765479
Rh 12.525813055948136 10.830713213003024 7.578138158748631
Rh 11.393108556121849 16.084825777239555 9.59345203701464
Rh 13.394413480938852 9.785023214216949 10.719949042345034
Rh 14.861593157464966 8.657160984267541 12.428900601235084
Rh 14.020033869834545 7.379904498056472 10.082059849288436
Rh 10.984237647318125 12.839015308925443 7.916587878299581
Rh 12.386857614646084 14.731976970536536 11.796609797780798
Rh 10.137281800085898 15.10540352476312 7.602171789354331
Rh 12.026886858983557 8.650488022560976 8.811611256736311
Rh 11.810465620953256 11.62229268056056 10.038651829858644
Rh 12.394242623212243 7.8096164230545115 12.060447942528834
Rh 14.384291423778238 11.051769899640908 13.534512002500977
Rh 8.778539897230115 15.691796015464085 9.69162845137008
Rh 9.972363687338966 15.681595624802743 11.96369848442384
Rh 10.11757523423168 10.42306302043997 8.446790111075021
Rh 11.427419227380383 15.450500992124379 14.083243910096808
Rh 10.506719763233017 13.83348988221597 10.254607201451536
Rh 12.96704546268066 13.272345403250423 13.849139534589197
Rh 9.196630588535784 11.6038063786437 10.636457028552023
Rh 6.667542560715802 11.750429224655724 8.807861015184505
Rh 10.458709267723302 13.071726372085491 12.745953148687729
Rh 10.633670039110232 9.47984551706314 10.938864639393342
Rh 8.47604704442012 13.28560159041497 8.740832882197356
Rh 9.598288986822098 7.859063444865217 8.988028851165824
Rh 8.930704571829313 14.670066279329346 14.103205251523567
Rh 8.13161570779028 13.875112258067105 11.449094327383417
Rh 12.316902161254346 11.221344737520063 15.237268317597252
Rh 11.51871239482661 6.481117886082902 10.02290373789957
Rh 11.988511900888604 10.939969919969151 12.687549240043463
Rh 10.834474043873511 13.298813726501306 15.351089689150571
Rh 10.241005874705664 6.548860589574306 12.174140295924916
Rh 8.411630104533362 10.108077332943349 12.533847597030046
Rh 13.027874115895195 8.958384747593573 14.25016384266187
Rh 11.738448060341483 6.80803949179034 14.304906439696067
Rh 7.88766132409427 9.734374011848438 9.508074075026816
Rh 6.735597546849194 11.684162679378565 11.285508405528457
Rh 8.506806598067959 7.96337824681085 11.270081505867774
Rh 7.810274797443294 12.377024599040048 13.474902734900807
Rh 9.877707104180686 11.127777795049619 14.355463116651464
Rh 8.445173472956172 12.739334907310273 15.820684377898244
Rh 10.468118550916001 8.834233243326528 13.524763125113791
