41
Energy = -240.14590959 eV
Rh 15.060808031166708 8.099250328931243 9.141989081908326
Rh 14.701250137191916 12.245366463362123 11.043872809335316
Rh 14.298811859048316 7.867196215540515 11.528025037623348
Rh 14.724098271849819 10.57345396787499 9.186417690960296
Rh 14.558620784124823 8.530456031922851 13.856150935413636
Rh 13.012123060963011 6.675945094039115 9.782870700212282
Rh 12.711278036809134 9.044256747052776 8.891149235098167
Rh 14.371566026987763 11.042389817297744 13.251141827036328
Rh 10.743321435009545 7.7966788888921865 9.919777169224933
Rh 12.368512825887443 11.56455346924482 8.520538091202445
Rh 11.37754158861742 5.833430562159675 11.468320181989348
Rh 12.409775904399474 7.220139535897818 13.075951477045322
Rh 13.613960092276722 14.47169277115376 10.575800680489523
Rh 12.132358480972185 12.21609283779878 10.888291363610225
Rh 10.336840611974822 10.022632053533233 8.50323492291571
Rh 13.090813344890563 13.339551888066744 12.951920934715897
Rh 14.388545750773181 13.11044186475499 8.622487354552938
Rh 13.277790851027724 9.982130117233435 11.207241205345783
Rh 13.043883932804084 15.91497808721812 12.48352393629803
Rh 10.634896285853667 10.044772416550703 11.023070892743368
Rh 11.937208336351304 14.167991395650644 8.738195182531994
Rh 9.127400671509887 6.954021137132683 11.693354371843483
Rh 8.461121695394938 8.828685229850633 10.123939488181941
Rh 12.276976418205797 9.612430107970406 13.526189564599074
Rh 9.94705873961832 12.503308425696462 8.631561869322079
Rh 12.302282102656195 11.886144277508516 14.743131916607691
Rh 10.34334250881279 11.269790570697264 13.305196556544788
Rh 9.638291078532127 12.55690484156784 11.177772743178416
Rh 11.272393030784324 14.894736144185314 13.801741540404205
Rh 9.786724034781217 14.882555831012057 7.940958677151083
Rh 9.052261388797366 14.394226322875774 12.746237878512447
Rh 11.119488742007704 14.77796490233772 11.181458951443654
Rh 9.984746113962261 8.703533376010252 13.053436302770749
Rh 8.001399030796861 11.20977780014676 9.748276185869212
Rh 10.796221249359919 13.52312197099963 15.691187244873737
Rh 7.498935950228601 13.37530233705999 8.671122542536395
Rh 8.198202207581687 10.35024093312514 12.18839162879922
Rh 8.841878841788901 12.754638118322971 14.448944994596076
Rh 8.80112149665562 14.822753711593736 10.226841088562553
Rh 7.129677799241796 13.212024062930585 11.286922415083222
Rh 6.810671086820981 11.908639181316076 13.337563165383036
