42
Energy = -248.62483482 eV
Rh 15.022237143303203 11.523339835276355 9.766646764723522
Rh 12.821725868842762 9.877401323850226 7.683924902259214
Rh 14.991983230987923 9.978986181646308 12.03727651939013
Rh 14.147749859116887 13.89229395451555 10.117131865408375
Rh 13.54593340254328 9.58715722427184 9.988753936332532
Rh 12.887328776250946 12.40362285354596 8.452489438741011
Rh 15.388202175662151 12.63314817162535 12.025877907619888
Rh 13.494483690680982 7.682759938579481 11.586462985975555
Rh 12.865528044998804 9.517102350761727 13.379123069528505
Rh 12.070376731126274 7.712924990470041 9.202212272085612
Rh 11.098882720882083 10.908905129513158 9.585583490982916
Rh 11.070042632731147 11.530063385362991 6.829731472468546
Rh 13.785233710212626 11.8177229317098 13.920582778551717
Rh 11.55858760670804 13.411569808711434 10.589882252692757
Rh 12.571364795797185 15.827806388141436 10.844714764632275
Rh 12.45036742802001 14.945116283545591 8.503029806365427
Rh 12.995659032910169 11.5423225957629 11.537317038590711
Rh 10.379365074219887 13.487077376403006 8.321432755528045
Rh 11.269390079446552 6.234011753752886 11.1536543338312
Rh 11.674913960382979 7.306520694432482 13.480794982458423
Rh 13.31041496466564 13.99287048652702 12.56974823383265
Rh 10.367255988869006 9.188319977086856 7.876690663675701
Rh 9.739013566813753 15.104541281426965 10.511185988673999
Rh 11.09908835714175 15.175499343117176 12.763921695298844
Rh 8.89321984512811 11.281312281681389 8.115581481079357
Rh 11.254506361419208 8.976815882553929 11.319687261744573
Rh 9.551703734605127 7.577415482169274 9.750242962321586
Rh 9.375467438429798 7.452196725346614 12.364999087969887
Rh 8.817850161598887 9.915741638854373 10.648284380311917
Rh 11.328606949048316 12.83931569797185 13.816195576368433
Rh 11.68391683415545 10.865038220067913 15.20679352354169
Rh 8.865020375438187 12.75161670140054 10.164615933951493
Rh 10.397413028392656 11.38412545978027 12.031427215722447
Rh 9.141416929237135 13.5970070736534 12.585081779654582
Rh 7.799169915272741 8.936943967474972 8.466588231637095
Rh 7.2724754881684355 7.881027086396197 10.913108235644925
Rh 6.833394286327285 11.224857195936947 9.556061898265416
Rh 10.250591036455003 9.422379834882957 13.76659600253313
Rh 8.976908412033225 11.55148361611187 14.174677184366695
Rh 7.4537922765434335 11.715984679573472 12.014381887804134
Rh 5.747711561313609 9.815770210404489 11.318254318436717
Rh 7.7933031928829335 9.39962989132832 12.953853157342001
