44
Energy = -261.9002984 eV
Rh 12.8047929001236 11.377686587867874 13.524706509677927
Rh 10.857439775992383 12.077087770105368 15.169499844088616
Rh 11.119084065716805 8.018984541401363 13.138199257493724
Rh 13.540528217536096 8.887558300448202 13.44164819474777
Rh 9.692708430777536 10.372646010460572 16.593057428245608
Rh 9.047999313273547 8.849249890872718 14.670912780354545
Rh 12.875466998126429 6.821254578107598 11.889584731462525
Rh 11.59580345072912 9.581387393562727 15.0759336615126
Rh 14.350327746255132 13.324415524195816 12.694522923033443
Rh 15.042035380761067 10.744138122620797 12.418754829996399
Rh 10.194321029087055 6.606090484314444 11.294302018315685
Rh 12.11017610608765 13.846279776401337 13.879344967275141
Rh 9.458686481535933 13.564599544841728 13.606852463380337
Rh 8.811845073592789 8.556770979599904 12.134541521611352
Rh 11.035378340073587 12.536716546298527 11.752565739060683
Rh 16.504963292180015 12.588709288723434 11.37640798550143
Rh 11.985984291189753 9.888756092146094 11.478518807134202
Rh 8.328023751523267 11.49624332058559 14.720623252513608
Rh 14.22015446779596 8.723907711630748 10.894873073493665
Rh 11.772418906808536 7.991116888371149 9.90336792900993
Rh 7.021617826494644 9.866425635677677 13.201855330755391
Rh 14.783941988037881 14.018551289059214 10.166302550986051
Rh 8.131519910295236 11.912420424394618 12.102914687408797
Rh 15.50998554514221 10.785560624642882 9.89665671640286
Rh 12.550880614039917 14.563887039157054 11.31593746615527
Rh 13.422325638384923 11.937856211542542 10.78102507404198
Rh 10.635600214808543 15.585491844809244 12.608158187204369
Rh 10.128450432879548 10.604131260937294 13.199317776774839
Rh 9.719380605158628 10.536752264279004 10.56287062441083
Rh 9.167590003417533 8.176786275271533 9.554290584994321
Rh 10.654096361213073 9.713938536467982 8.247139360801933
Rh 11.382240131509402 11.981862816326101 9.230149471774265
Rh 9.139460807747561 14.089693257685141 11.078488920464558
Rh 13.143584761355095 10.043251353016688 8.962409708794445
Rh 7.284242350094614 9.965391808450638 10.561180373656038
Rh 14.188823213462658 12.320520637989452 8.251756060037494
Rh 12.553690696327731 14.19578545593892 8.774321228904242
Rh 10.804554140068296 15.811412206189585 10.043497499537025
Rh 8.249308474635152 12.191405620649043 9.458307724709908
Rh 12.213907407712579 11.376845477238923 6.916035360810313
Rh 8.07847601562538 9.967954938645212 8.045468757298645
Rh 11.416708546114716 13.70401031032387 6.565089937808591
Rh 9.93067201394681 13.95336878892584 8.658154619982588
Rh 9.612500621285152 11.914792908748428 7.232150397297588
