44
Energy = -260.09094046 eV
Rh 14.461260185638107 12.493113469130467 13.876858928070295
Rh 12.28194194049476 13.630675567489586 14.805769413726708
Rh 7.834561802598727 11.258752502748287 14.83252537154911
Rh 9.988575574317071 12.565380430942257 14.696930224318896
Rh 7.848682520376765 9.30183827302905 13.13127278102592
Rh 12.142165762324373 11.51001148439236 13.442762889010087
Rh 14.42789940232408 10.13632030940849 12.771042356498922
Rh 10.088109945011066 10.106095299488354 14.072400517447045
Rh 12.16578803853761 8.950200515495412 13.052104323902961
Rh 9.823468803022505 7.744302749357665 13.117037438895462
Rh 13.637910072047907 8.31079300097705 11.005621548976341
Rh 11.208410417059936 7.435342112630833 11.125942856000904
Rh 8.131589500502812 13.880217760067287 13.53655509063932
Rh 6.059666748272596 11.081538836242771 12.918803002125651
Rh 14.858171503143465 12.371436152649947 11.340564158847107
Rh 10.525345572387147 14.5519510537574 13.104807830732732
Rh 13.009465864281996 13.825835553039363 12.333384841085655
Rh 5.99617182535409 8.56825680993736 11.6776345007867
Rh 8.74174141068583 11.70593054986849 12.476546970790343
Rh 10.83242007522889 12.636682835690674 11.400654624248284
Rh 8.387909545290679 8.03748959481791 10.865702725519405
Rh 12.767189449619806 10.821402492418596 10.951211473852503
Rh 10.3560356332855 9.946037108348394 11.360694787911418
Rh 11.433425949509438 15.177551481965766 10.817881459368925
Rh 7.347670388527544 10.431072396809965 10.760254876244256
Rh 12.584381656372116 6.649004672451319 9.128365976876697
Rh 15.190195797647846 10.18658511058366 10.19880267145152
Rh 6.828633629271588 12.94181571663398 11.292221688591086
Rh 10.010767248814863 7.274722576479376 8.896029055976756
Rh 11.87531534272145 9.101617927571082 9.116365216901029
Rh 8.942358705201858 14.38165308738437 11.044589471409328
Rh 12.947898001278345 13.234937618574746 9.79656039738493
Rh 11.582183093513251 6.779053705918958 6.8371324066905705
Rh 10.492771224484795 13.975722467586557 8.784956413889764
Rh 9.041075973118291 9.706318255454834 9.058610352200304
Rh 11.050089433435755 11.494423930475602 9.085674135399481
Rh 8.654965603265632 12.307452952885084 9.574919730391798
Rh 14.382423637043173 8.452744410044717 8.52427843336079
Rh 10.324454582614853 9.030180008675536 6.9814365879884255
Rh 13.571098347449318 11.01682209808248 8.335982961204456
Rh 12.84775541499163 8.944588956457338 6.63123163746834
Rh 12.43124271078358 13.317996298386493 7.327674474051649
Rh 9.229645735548722 11.428800230349252 7.243915034782671
Rh 11.667992409496998 11.177032282546186 6.516409061993431
