45
Energy = -267.55922081 eV
Rh 8.219774229575975 10.831704636782767 13.325099332424363
Rh 10.322648711614175 10.035797201859905 14.76456534768998
Rh 8.28790707173969 8.49643185426151 14.2681066744966
Rh 6.830406105944814 8.922243779159729 12.151511908727025
Rh 9.996323955137443 12.55987375326051 14.193981798506679
Rh 8.274855458098362 6.777276729102304 12.336705885086241
Rh 10.425787938062237 8.14571663260717 12.938305112839751
Rh 6.270472771280175 11.458148753588699 11.728218537710571
Rh 7.716279320415017 13.318541305526974 13.018918750340099
Rh 12.358618855943496 11.64253410527232 14.94341044719093
Rh 7.844930358507296 7.64219004784354 9.904961775949388
Rh 8.694190333870763 12.077283010376632 10.985718599920906
Rh 7.1910091167905605 10.177726919480111 9.73010087338648
Rh 10.07127629827584 10.756109758009297 9.260649183825109
Rh 9.059535967247204 9.37248191829528 11.212411769329043
Rh 12.8234611027799 7.475822130975129 11.966586545595648
Rh 6.680547689753122 12.713695990602755 9.426404652744399
Rh 12.567473190453079 9.54778290069446 13.526152609867955
Rh 10.279335018820165 6.749025833183791 10.778167876279248
Rh 12.233738484773797 13.046552966480997 12.91205145836123
Rh 9.92539548966726 14.15011690225638 12.16545152287298
Rh 7.884570909675917 14.518751434216183 10.60845575843325
Rh 10.735892611553613 10.915103251538277 12.333403081074772
Rh 7.868618525398561 9.01058596581239 7.619272285291949
Rh 8.21846794028995 11.656608539363706 7.7801689666434966
Rh 10.03135234064115 8.154220605559688 8.54673897618524
Rh 14.446495425049644 11.642123581653404 13.181015020835126
Rh 14.828200300965175 9.18083831372567 12.404754545657523
Rh 12.316664519192598 6.966953379655485 9.258272913273862
Rh 11.218195110433149 12.664126790100434 10.490706535327224
Rh 11.491695158888884 9.040239312317405 10.49409096511701
Rh 12.092484561035507 14.991380863657886 11.139369967832089
Rh 12.659390678348325 11.400435580294298 8.751620460782853
Rh 14.02982495339314 8.795166977550041 10.01831831767404
Rh 10.06121052822476 14.521896546379727 9.340845960311825
Rh 14.015806448540605 13.233435700111325 10.936188652685104
Rh 13.04656245758781 10.930209717762587 11.2655152441037
Rh 10.102602107678596 10.132704344863704 6.811646001448432
Rh 12.384448194669709 9.05788297387079 7.823619667134437
Rh 15.39671577701342 10.973671211539465 10.513495236665175
Rh 14.85134641340624 12.659537237818117 8.592857187720327
Rh 12.6127122562236 14.012392706875897 8.782658137160647
Rh 14.74719669806746 10.184330114045359 8.03738738177247
Rh 12.410366408181348 11.04988985117498 6.2959631115285335
Rh 10.67699782157696 12.612243485279269 7.637940576982837
