41
Energy = -242.02314946 eV
Rh 9.610449834914359 12.43080108744008 8.684695676172108
Rh 11.31246649526792 15.618690697614653 10.515056130802531
Rh 10.316441666026925 13.326094848129504 11.279629763535276
Rh 11.953659185245655 14.746546018737048 12.915666015318957
Rh 9.431746910191697 15.362662635698742 12.369566439380089
Rh 12.877518916214417 12.603696445941004 11.657491231980938
Rh 14.469723642210173 13.921149277244186 13.19024634200918
Rh 9.12564433917225 14.792586942222199 9.544997464722794
Rh 11.330537891083246 11.234359494344579 10.165027157888302
Rh 12.05775836204879 13.473033671546045 9.099543636661245
Rh 13.682596179779706 14.856849374134505 10.808921731906846
Rh 12.538309646550925 12.601711930495236 14.294954752048117
Rh 12.967210723756269 9.931801377690835 11.626704856466977
Rh 14.620020087048646 13.609735789451394 8.854484717403277
Rh 13.76333779545209 11.270075593309222 9.29354316254483
Rh 15.362201410589044 12.59939012787623 11.048371852515926
Rh 15.438731479125028 10.08653327391957 11.01104384555155
Rh 14.613177438431913 11.3082978618208 13.254555162739505
Rh 14.812042634401035 8.984727334922669 8.846484475118308
Rh 11.644856031474502 11.199322362492913 7.677528916612407
Rh 13.853273975365019 7.692852093876783 10.75221542239147
Rh 12.600292788535725 9.895136882204323 14.24765925740866
Rh 14.559268003658579 8.6779530606731 13.15606348500767
Rh 10.582869936346519 11.12913224201773 15.266906029051189
Rh 10.002123870967123 13.336383054059208 13.957741874946853
Rh 10.906724222614008 11.198451948255348 12.684460499186349
Rh 7.35274445995313 12.939076519781988 9.879934796103127
Rh 7.930699750423283 13.186557090047826 12.369371241093102
Rh 8.493779430519087 11.085976474602072 13.604940200855744
Rh 8.060076805151995 8.96424151971191 12.10736673668239
Rh 8.81058072126757 11.155972387444628 10.964026566764286
Rh 9.715362059446724 6.904555524110901 12.35616930586533
Rh 9.732412065524382 9.759788816236673 8.716922445809738
Rh 8.849229415878764 7.650841601160109 9.948957101430393
Rh 7.155100563795153 15.188948531764936 11.070877205793368
Rh 7.332422173941932 9.69694508548755 9.664571554594747
Rh 10.480465406036135 9.074156338588443 11.25171988315133
Rh 10.089310159076083 8.983754131021591 13.860383447785312
Rh 12.174912686440482 7.664466534637027 12.810012062555156
Rh 12.224983451427414 9.004756239000278 9.101288436976967
Rh 11.464537884646877 6.880508611648509 10.389499538808057
