46
Energy = -273.98507024 eV
Rh 15.07461879568657 13.998523138912851 10.130366124409246
Rh 15.113940826444043 14.33077270653087 12.691547163711638
Rh 14.671230144648709 11.990163014688232 11.748751772082962
Rh 14.273923311793139 11.67701763184225 9.204321864601331
Rh 14.141019265892 16.145932867936768 9.122145435814375
Rh 13.294199132794212 13.923628177130263 8.211268952370897
Rh 12.45479712173932 11.789271393251164 7.229460357148756
Rh 13.353077322206321 9.429838024629062 8.241748506381246
Rh 13.664018276381364 9.77198944455545 10.815495029024218
Rh 11.770083951693268 9.576520576205139 6.222218045176141
Rh 14.076688146018139 9.891978736590877 13.36099569875083
Rh 12.650446493809508 13.390773806611683 10.644088887843377
Rh 14.122655888252313 12.33413395598017 14.261014874549863
Rh 13.298209662410743 15.800076420047166 11.407385224387651
Rh 11.586309839132495 15.513921009623921 9.448992035237985
Rh 11.709227736668161 11.022972481265253 9.583758518668713
Rh 11.548521374808162 5.817328780844398 11.263962717065045
Rh 10.758063113129781 13.25738451716045 8.56055872474688
Rh 12.926697660256263 7.677646848259546 12.430222836297093
Rh 12.207582971641028 11.440003786120355 12.31255712517048
Rh 13.58296041708063 8.01821195809916 14.904292996653897
Rh 9.983527330558788 11.039576936960998 7.530535444882878
Rh 12.496409499171362 7.634712877966499 9.856682771609377
Rh 10.794593218643675 8.74751982210451 8.334292347122194
Rh 11.073562905479994 9.275982102703821 11.39359205927436
Rh 13.019738324870948 10.526010281322149 15.663956910726032
Rh 9.098578419473863 14.671191052822815 9.9288981680789
Rh 12.70475612035994 14.081701588237296 13.162703382451992
Rh 10.16060958316477 12.536365826542722 11.09742879917283
Rh 9.785531768331722 7.438510529498541 10.235471392674004
Rh 11.601234203604784 9.241089466736057 14.007655800254563
Rh 9.178601260107177 10.039099317241014 9.823408920017995
Rh 10.768461246091169 15.02900973321926 11.804440436215337
Rh 8.340318875572653 12.366935203269424 9.156591585215695
Rh 11.510526812241633 12.34945366086335 14.667952016183847
Rh 9.815675072191322 10.887020492947984 13.115999359021739
Rh 6.861549342153167 13.676376217420835 10.806392845991244
Rh 10.299190549162311 7.279306357637777 12.823108852112307
Rh 8.394526292715044 8.944769207866942 12.016317550123578
Rh 10.224103088072757 10.466495431109506 15.81911930220114
Rh 8.603073288074382 13.776026880426768 12.601282792132231
Rh 10.411216522024484 14.557220528840123 14.24256109723368
Rh 7.799947095197344 11.455272857592643 11.55406109567204
Rh 9.100851155288444 8.66758283464892 14.487010715680194
Rh 8.919860719317427 12.53158432446146 14.790163476264325
Rh 7.390900054042447 10.598711389670786 13.900834187991634
