48
Energy = -286.32822478 eV
Rh 11.829341985935873 6.4758210495301185 11.156178069305279
Rh 14.213047817129853 7.046808505315832 10.195554297604554
Rh 12.4061568239897 7.984174534121607 8.72954082982839
Rh 10.007685435022546 7.260542098468394 9.324423946971367
Rh 11.302349294635226 7.555451787544622 13.561073818539056
Rh 13.501253617202698 8.137945302910408 12.411633668609275
Rh 11.28696948846944 8.873574797422831 11.09066201231472
Rh 10.72371357417558 8.244050481477121 6.832221384270478
Rh 9.35816090964499 7.3647101828752675 11.82760780906423
Rh 8.825972722739017 7.9108391008992305 14.34776405751207
Rh 13.775885348921696 9.5197659103524 10.368929695400729
Rh 12.560186907245429 9.850102712273447 14.050344710141735
Rh 8.078142459319254 8.773941383736243 10.079527856274778
Rh 10.682126962755918 9.266692312624748 15.630806886171671
Rh 14.679603677570935 9.146076156191649 8.126653262068205
Rh 14.392612538559316 10.775210227546296 12.483051076036931
Rh 8.427146360254016 8.917966272143065 7.591232421152232
Rh 12.528782624323028 9.9943951191693 7.056134256542839
Rh 10.128878237908612 9.886346855850098 13.229954616179128
Rh 10.514879200933024 9.897570093341312 8.857434926858083
Rh 11.916010328910815 11.24185444101936 11.754603461275586
Rh 10.505693980102631 12.731324303871547 9.874389791151774
Rh 10.068017198887844 10.936260148556995 6.670047302414108
Rh 7.657596575870232 9.315168709923228 12.581649787012775
Rh 8.329068989754738 11.280189985418914 8.626380988351293
Rh 12.59731387586046 11.492987224270507 9.202144965864738
Rh 8.389210083267109 10.509140458642744 14.908823377458942
Rh 15.138698850118052 11.557878155089995 9.718869044156689
Rh 10.750241526525349 11.793261586589335 14.878507963586387
Rh 9.738545082638483 13.316897748974696 7.658194441668887
Rh 9.365966462083572 10.719319869368299 11.01492037249141
Rh 13.582083472153561 13.02377077381705 11.179519301634185
Rh 12.972339045527896 12.467455490560578 13.71995401296529
Rh 12.048853208977825 12.57436092337007 7.0013854027206905
Rh 11.990491422896476 14.650376853987636 9.968415073837336
Rh 7.595508825829015 11.87397479205212 12.80758162886516
Rh 9.997341145763635 12.828649874446464 12.534754782346846
Rh 14.458845166039508 11.549774499071699 7.20768520867351
Rh 13.890870673059661 13.656353116979352 8.590339634532384
Rh 6.643217370892548 10.804890006344678 10.662494465512083
Rh 11.605270531613689 14.990534586038414 7.580022484286724
Rh 8.556046876750418 13.12997580451362 14.76981106821355
Rh 8.012912674243209 13.034101477565702 10.499700498098425
Rh 11.898896440566535 14.497689739988735 12.487984512834501
Rh 11.52956208030463 14.121658072390021 15.087663698014424
Rh 7.560726070342427 14.419974142573002 12.696862914457657
Rh 9.61621101470863 14.955237275555108 11.104335307471645
Rh 9.773201784259221 15.173693467076744 13.694199431612589
