43
Energy = -254.36655928 eV
Rh 12.0436201270895 8.91249186482626 15.934160279360716
Rh 13.842119692836455 9.517577442767198 14.113250741048047
Rh 13.733579210058425 6.980243592437228 13.06296982360614
Rh 11.779619399740502 10.993593858050055 14.509443300785124
Rh 9.77164008666705 9.426164649044646 14.858707371525988
Rh 14.458888240758125 8.966547277949935 11.707545823723871
Rh 11.315802284613497 6.232056424680689 12.230055763616232
Rh 11.674501084486955 8.30170929790783 13.520572612184479
Rh 13.151471781278213 11.242703468401093 12.353052410036737
Rh 9.253633929408092 11.954177579093823 14.406791600772921
Rh 13.085037036692267 7.047973606821248 10.525144911294333
Rh 7.723025989978777 10.027143121069345 13.453113640738188
Rh 11.974066474632307 9.213799804973611 11.158356867769474
Rh 9.345952761242387 8.097706860731966 12.409233350110066
Rh 14.838139599236019 11.326547355754082 10.536903986007323
Rh 10.117246588495485 10.547674421123576 12.50208751984249
Rh 13.76765325046571 9.359561785340466 9.306403157342352
Rh 10.563680580106137 7.232992051848117 10.059615835489964
Rh 11.265555263040671 12.925040417280425 12.90650890065657
Rh 9.51445166180255 9.49063530293008 10.214590692097872
Rh 11.301758336074158 11.56252439632713 10.438422861320444
Rh 12.930400219965076 13.372466444216952 10.78353455150994
Rh 9.166306514871254 14.314393561495777 13.473283452196084
Rh 7.220189681058296 12.599952037922318 12.87057496933151
Rh 9.222505213496836 12.831120761166957 11.338346092075724
Rh 12.143161060272282 7.711898639959816 8.108498413193658
Rh 13.368397696178596 9.934452788220119 6.882197252629386
Rh 11.22997152954269 10.073034578920858 8.349083239535025
Rh 7.54429644182641 9.861438506852688 8.566257561244083
Rh 13.229076512491112 11.817259608818235 8.676809843615455
Rh 9.177360774261402 11.778336647173175 8.97505921813314
Rh 9.506958721238822 8.264453124536455 7.889553750345924
Rh 6.931526081062644 12.969854799105823 9.920517616372663
Rh 7.572631356837108 10.8019615470062 11.056528373586785
Rh 10.717155357614995 14.769966375084499 11.016813068116583
Rh 11.051699702993965 9.161172073121074 5.981195375587961
Rh 7.74712777254721 14.92263616960783 11.395733730881792
Rh 11.266103358224107 13.523223995678947 8.727352700062308
Rh 11.566320802763098 11.86489361968691 6.660636491596485
Rh 7.117124537248341 12.15943605159324 7.480365878051813
Rh 9.140452926870603 10.680980828225906 6.625368013257147
Rh 8.904130644029328 14.435501974088886 9.183523432073555
Rh 9.451626030840094 13.264270963617369 6.904459024840722
