48
Energy = -285.51969429 eV
Rh 11.695052014344501 4.860015747163562 11.052341791095627
Rh 12.128724395716581 9.077404877908341 11.240877476971908
Rh 6.098868444678611 11.654962328938247 11.950929855889896
Rh 12.032321566954488 12.988187857800233 15.474500211443685
Rh 8.114756933802258 11.431409740073494 10.497561128713283
Rh 12.579397482380893 15.581644001837384 10.228566327462463
Rh 12.260736156990436 10.380555472064326 7.583387785954126
Rh 10.520685287813373 15.47049067864661 11.826838462763593
Rh 12.364625566025664 6.803753835262422 12.586509396510396
Rh 11.107863714296782 8.449599546738098 8.916520148666098
Rh 10.323683107348435 6.95185049548989 11.026100742849424
Rh 16.011869946794256 12.076205965957678 14.826279826769216
Rh 8.501945133802323 15.064355761693895 13.451652238459188
Rh 11.14767978343472 13.377827856645544 10.32033254536436
Rh 10.216650831361735 15.422429955746827 9.205236232615222
Rh 13.019688074961785 8.968609759166798 13.74459960454032
Rh 14.094552526527274 13.42829900815529 13.92781124210691
Rh 8.958733785554184 13.192999429055721 8.845349439418094
Rh 14.489157734824401 8.235615114448676 11.674408233934951
Rh 10.470722139894622 8.610793240402248 13.162361851106295
Rh 8.630353718711412 10.621114976852668 13.023852036979871
Rh 13.68088248293665 11.091077995956864 15.10185538626006
Rh 13.430829046748677 13.580570334318137 8.76122951183022
Rh 15.753358311417154 12.967342781536733 9.844302692568547
Rh 9.113065244558571 13.099193325983654 12.036588911130703
Rh 9.626323481250118 12.882529236334872 14.600677908481432
Rh 9.360891438497141 9.214662018526441 10.909319642432743
Rh 7.278876253402871 12.76820033363315 13.806023253144977
Rh 12.944944169778896 6.81652046707367 10.02126642885699
Rh 11.266306932568986 12.870463383756782 7.7672197017724915
Rh 6.1895590645296465 14.313069992773086 12.169479727483312
Rh 10.24972366233527 10.897598490353232 9.105808156559583
Rh 10.797745406771888 11.201905049394446 11.6497227834203
Rh 10.917106671316295 5.870773964173328 8.850629383401404
Rh 13.276436517098793 11.241796791438269 12.534575719024405
Rh 12.993164532342227 15.50437088702893 12.834712477474193
Rh 8.176603126034648 14.934340860889856 10.716903418852965
Rh 15.918000501728791 12.476046887379143 12.358481693497819
Rh 15.393950442309912 10.08495833866057 13.306924280069621
Rh 14.646076011747823 11.309781890384 8.27670033301092
Rh 13.795012861099522 13.55675212524055 11.307642584918124
Rh 13.745941561227719 9.014726460123558 9.205087071325952
Rh 15.100415110682345 10.59881578901415 10.748239570934906
Rh 11.668003938147175 13.29922823107377 12.947555681078935
Rh 10.895086535550778 15.226956285950205 14.430125853613465
Rh 11.17863246812289 10.88217822176861 14.18209153895992
Rh 12.741999599608583 11.328999469176194 9.953427002301712
Rh 6.527428097279235 13.223027228177141 9.859563101475004
