42
Energy = -247.50185753 eV
Rh 11.498442093843865 13.894905558669585 8.039388583582868
Rh 12.779296814602276 11.675227201628761 7.311701574239055
Rh 13.848949252873815 13.514587819219484 8.933245750830341
Rh 7.605607205177737 11.904104699132965 8.174229638220126
Rh 10.077577593563081 11.815695736053337 7.433454115492681
Rh 8.634979480729536 9.60289294555073 7.614340353187501
Rh 11.83921558770554 14.168753183117772 10.685311689949685
Rh 9.469641201597888 13.381030827964095 9.593619391275562
Rh 15.182382565427606 11.301612936688732 8.489952506395591
Rh 14.427248075504675 14.580757402429816 11.219688216188352
Rh 13.38760647704407 9.830743411024164 9.233845589462241
Rh 7.1089237191013375 12.270567140023138 10.593507228817671
Rh 16.117681578994155 12.922231078583094 10.188229890220372
Rh 11.673427274948287 11.817689005377934 9.54618446442353
Rh 7.065368302888014 9.748811545872936 9.65050661179242
Rh 13.798116393828105 11.843483739833246 10.881150653057496
Rh 11.070854140158673 9.55345006847859 8.35057184432563
Rh 8.692943562321513 13.709307331456488 12.003634146712516
Rh 9.311897411016565 10.852063262163846 9.850520823689946
Rh 9.378187839580052 8.325851197743248 9.92285438223774
Rh 15.897977965225513 10.493433790917466 11.084954969427796
Rh 10.753596468278582 12.18053339685835 11.9761471039935
Rh 8.49130995495923 10.783611831763045 12.26866556762187
Rh 15.467221419372502 12.531260274535532 12.708563485129458
Rh 11.237595191414933 9.749283773065763 11.253758323039635
Rh 13.914626837873845 8.991522449754475 11.531921345700749
Rh 12.047166767897092 7.769011999995828 9.988906031406488
Rh 13.044382839495086 13.401991829846295 12.91508686345304
Rh 10.74156117208172 14.361222792342035 13.364260438342061
Rh 6.001354000795906 10.295518244813787 11.937715791157316
Rh 6.758160617940457 12.45425118421708 13.12280204721993
Rh 12.814267010245617 10.783890462605209 12.980203653272985
Rh 7.443441488565442 8.238552025662939 11.667858456285094
Rh 9.825850720078856 8.014578076528968 12.484669736010728
Rh 15.154702929988618 10.079217027823038 13.570733678972587
Rh 9.150865591118018 12.404220555513726 14.1989950410229
Rh 14.206287729506885 12.107956166140522 14.897744486932625
Rh 8.120820107775161 9.09273051614564 13.999785625868583
Rh 12.228869022903032 8.262181243059358 13.280901834196802
Rh 11.631516292990325 12.288556728538444 14.74993888741197
Rh 10.475512937448837 10.145193800883051 13.876777482469649
Rh 12.763328261422407 10.005195365269993 15.337453967956636
