44
Energy = -260.53415021 eV
Rh 16.53167211206308 10.563010206802776 13.539296203710471
Rh 16.46694595910708 13.155857759947915 13.144631521967183
Rh 17.0316921877285 11.536486984947876 11.169175894513389
Rh 14.614106857822097 12.044039612201836 14.587645581272328
Rh 15.536029488510605 9.261633158479135 11.508297277199569
Rh 15.363101563090684 13.475639930102654 10.769883339983553
Rh 14.27936001232066 9.47587305516954 13.862812446476434
Rh 14.054203118865559 14.058449182601793 12.992482103748477
Rh 14.491376989238988 11.481839896034762 12.127628767049432
Rh 15.115332832773667 11.096991904843117 9.617962806263826
Rh 12.646194235070775 10.61379363412048 15.481901255931458
Rh 13.102611043604657 8.382990213429272 11.774444295378691
Rh 14.215457258073416 8.68786786297208 9.389108992364935
Rh 13.395545193927175 15.101144369783617 10.733066326170034
Rh 12.128778660253664 12.791750218270517 14.147346893618712
Rh 11.954296242341718 8.352175397543393 14.094275352036579
Rh 13.309434092999014 13.007046906712516 9.209746740793323
Rh 12.649124089963408 10.417576184262161 10.299027390945392
Rh 12.1502934212581 10.51149158307024 12.853625346498925
Rh 10.22745556593292 11.325227043692422 15.060064308574784
Rh 12.365452466550227 12.750601387687002 11.546588542862724
Rh 13.29410425349061 10.906827962972054 7.815920937742694
Rh 10.01890665819671 11.92990665600062 12.452618492847767
Rh 10.61657929197556 11.874684062330987 9.918627206329703
Rh 10.671026227384607 7.546992402875509 11.99855734534239
Rh 11.42659646408808 14.831861304565964 12.559492014237769
Rh 11.055818354578346 14.40344257870583 9.903315828733227
Rh 11.20506323138809 12.682684091337888 7.681151813129156
Rh 9.737333795312567 9.482741225822494 13.377157726565294
Rh 9.722008269713944 9.493125409237933 10.647737645811118
Rh 10.993761951572795 10.004027526681398 8.196486133229977
Rh 9.625038992338434 13.763313640895149 14.187757673203443
Rh 11.63383302302969 8.051251310635653 9.65193581575916
Rh 9.10374780480319 14.144267268591113 11.59230716960295
Rh 8.831069792400436 13.621419505805576 8.96219416150201
Rh 8.82094177810974 11.144459068049786 8.190932414031245
Rh 8.165927637200879 11.703834220180884 10.704331436064283
Rh 7.527641040052479 9.57878474382996 12.088061449908622
Rh 7.985159223993831 11.457380439473544 13.789161923385404
Rh 7.302789551369996 9.586168190408141 9.553315632753868
Rh 7.1962721874124425 13.815081787092614 13.197464030270098
Rh 6.710229159361974 13.873727399726691 10.621410625832171
Rh 6.491414353846536 12.045502527189248 8.83342644285503
Rh 6.075482774171395 11.796528839668978 12.046926227060712
