49
Energy = -292.42688929 eV
Rh 14.905239010555162 14.323214813091734 9.471894849823645
Rh 15.600542287299385 12.16403145463977 10.831629001020769
Rh 13.72626767686716 13.93109992745716 11.64695510928541
Rh 14.825760699145853 11.754336589376512 13.2757663232142
Rh 13.423443495857024 13.689477183078345 14.145582261778882
Rh 13.819117891783977 11.540233869431187 15.661652180990256
Rh 11.281569220261325 13.339831495100578 15.399944339764108
Rh 11.602977631825057 13.10838670763986 10.11194774058616
Rh 11.815523613733603 11.789674065696182 17.255245891007178
Rh 14.906753586363834 9.719229875183633 11.642297834689858
Rh 15.281628017682548 10.007450195953435 9.177710691710052
Rh 13.85693430300601 12.111360834251741 8.900378769115704
Rh 11.324989969853526 13.995960462655525 12.690230649677527
Rh 13.10654986112971 11.473800889989196 11.318665626219019
Rh 13.938755654762806 9.457660535349099 14.039819026834676
Rh 10.646072497976046 15.362470347856704 10.546316438781476
Rh 9.289396957848469 12.944917520110602 13.940653079249214
Rh 12.087103022165245 11.442137307940364 13.828751559199851
Rh 11.956067879716386 9.72290788316329 15.77466394749274
Rh 9.05818250902297 15.088874651536619 12.454057822831007
Rh 13.088373351276307 9.961931393336426 7.936847976058999
Rh 12.675107560193759 14.26492007756515 8.110348396739674
Rh 12.956403218833199 15.848237457374227 10.114530638615038
Rh 9.838898893783169 11.168667595871389 15.602994406403473
Rh 11.450855722854344 12.01625820752219 7.67756588846127
Rh 13.821831558277422 7.467346482241536 12.332548809378862
Rh 12.081129251791154 7.655190883877634 14.228197911505672
Rh 10.086391066374704 14.208284344465863 8.194367545516624
Rh 10.178985204109583 9.320500068417703 13.876414439519495
Rh 13.210851093368591 8.537867180139063 9.969070448991776
Rh 12.002419946755374 9.331090681628764 12.098472654129164
Rh 8.153533993271218 10.733815316296589 13.239301789631527
Rh 10.37220460883725 11.630638280355088 11.926633518391442
Rh 11.202254417069721 10.464308922615855 9.7438891366299
Rh 8.02088286872668 12.89584276700835 11.809553655277975
Rh 9.087092682835852 12.206567249769693 9.57460136923227
Rh 10.719250675817062 9.51306392864271 7.259987450185134
Rh 8.26038675310334 14.656084852525536 9.988941899123494
Rh 9.042645698469618 11.461946977560084 7.117469503183727
Rh 12.238260937635268 5.498684944838368 12.958077461647893
Rh 7.596115716684126 13.508843656707159 7.756218242588347
Rh 12.2958164929149 6.320356163219867 10.609798053024646
Rh 10.50675328738672 7.250964139327723 12.144432356574761
Rh 9.283774123669 9.352304888213599 11.39181473623038
Rh 10.65267406097359 7.982037193729154 9.569675967639157
Rh 7.250636834129195 10.718304964245572 10.687735222015501
Rh 6.249023629582167 12.988777220982023 9.90358151892751
Rh 8.780790126527478 9.636547027583509 8.880822063195538
Rh 6.705890753346076 11.132994131885871 8.17983891611834
