49
Energy = -292.32054733 eV
Rh 14.638218419807561 10.742874497710703 14.605032507854158
Rh 14.317675236102637 12.506251550887322 12.743902752526267
Rh 15.135998803967405 10.102064776971588 12.116914737735426
Rh 15.896286679246879 12.148315376122085 10.648917147297619
Rh 13.434312032658086 8.748599837639988 13.491865557378555
Rh 12.727236720310934 12.511595482256425 14.692664012920904
Rh 12.232076028223137 10.071923560162759 15.359882407897722
Rh 12.152361715799715 10.843849854178076 12.774211073024846
Rh 15.214662346201283 9.829809809993025 9.484324032492326
Rh 11.944176878844933 13.685497209254802 12.497481056434967
Rh 13.286596417171205 8.754258895781662 10.925518190938279
Rh 13.99478581771982 13.85574075824384 10.605377295983597
Rh 14.238348812831067 12.147821290316708 8.343557374618012
Rh 13.489564575163065 11.341536259200108 10.548142390280395
Rh 10.914461724570627 8.503567397512674 13.955073078326395
Rh 10.329402091562713 11.56274642973573 14.43986285464609
Rh 11.189948723263624 10.325849182162212 10.436033822371149
Rh 12.79900238706654 9.891157059259562 8.387755493191047
Rh 12.951261361824685 14.377637611070028 8.264134812883325
Rh 11.52336094287329 12.93895334245767 10.028284597809877
Rh 12.093652378201858 15.47547466214446 10.391569558425461
Rh 9.850668799293324 14.793036060996876 11.285069356887188
Rh 8.734373933606363 9.604419173853051 14.834901197492439
Rh 9.54773296020534 13.844132412188653 13.713442956065897
Rh 11.721318100230349 12.18116705512509 7.679914796882999
Rh 10.341840785467546 14.43814723294183 8.455469996753639
Rh 9.837353868074974 12.199494499747193 11.741534736817377
Rh 12.211904417859332 7.404562788752085 9.160607992524792
Rh 7.933390517578472 11.755592609220297 13.543127433725195
Rh 9.961164869004493 8.457130141998514 9.24720878757309
Rh 11.032071905676979 7.698827727753815 11.56068451621948
Rh 8.757639912028408 7.45667466864505 12.908159719714654
Rh 6.962785289010969 9.454948693506465 13.025336995376339
Rh 11.622567559115966 8.038240887183642 6.816976177906786
Rh 9.468596714833646 9.809564203097683 12.307067737052709
Rh 7.5343448657505245 13.825319876391855 12.10145579849422
Rh 8.390735571732396 13.331496843252275 9.787961605808082
Rh 8.894077242933756 10.812967474922765 9.511535937089006
Rh 10.316359137863866 10.126176164660508 7.361010125271527
Rh 9.074947648204898 12.37912416268654 7.485551640038695
Rh 9.063981689015582 6.451373841829096 10.455238151428084
Rh 9.970520347252936 6.325060332814945 7.899625487162098
Rh 7.001896780615366 11.303909301129925 11.128899661373095
Rh 7.745070921148539 8.620111493952864 10.768078728849629
Rh 6.635087971544856 12.029359252476075 8.611850250339566
Rh 9.090392002022327 8.149298432137092 6.269619006783788
Rh 7.73675498464853 7.695929479076824 8.371930294248124
Rh 6.078915580557273 9.638007964953763 9.27016727224451
Rh 7.685567797168294 10.097820629708426 7.327938150047031
