49
Energy = -292.5301618 eV
Rh 14.461778832340807 9.060630352861587 8.549720984392373
Rh 14.770142758628468 11.106193923986952 7.106302407524293
Rh 12.358022225339822 9.969707083950375 6.950338821189796
Rh 15.546562837830445 11.23795416611484 9.657919654421924
Rh 12.134236347112646 8.617618160379342 9.247550190487306
Rh 13.747092042099585 9.439473071068711 11.162660323408646
Rh 11.097234370801296 7.792762663667998 7.044946267936796
Rh 12.685772513862771 12.599739903737891 7.234645399965148
Rh 10.755238753266779 6.491481958270689 9.201294967259964
Rh 13.129901350329016 11.142132178631476 9.289804304059272
Rh 14.921475513082312 13.377691142482181 8.324954711546411
Rh 10.361908267560613 11.690647130137567 6.40924835797853
Rh 11.66439558316201 7.683970619004082 11.601280773529792
Rh 9.282929832636857 9.496093439960081 7.272160049466121
Rh 15.410455412662529 11.301617098974129 12.17818105149536
Rh 11.171183127849293 10.194784405338272 11.288396699335681
Rh 10.674747353321564 10.89280904990727 8.820448603373706
Rh 8.355547364981744 7.296162267909952 8.176052960585384
Rh 9.607400942426953 8.666038274966827 9.811156125247724
Rh 12.747913364751467 13.739036603258716 9.552324882846856
Rh 10.458101273666761 13.474021980222751 8.291547545250209
Rh 13.594410115504374 10.292880297726617 13.611674202087087
Rh 14.99753356319338 13.534867759417091 10.91155274862435
Rh 9.355907937338738 6.4138884414299575 11.288590825020892
Rh 10.142623770521665 6.967790903031832 13.606991976553237
Rh 9.036927151902088 8.928148032935956 12.32056772783981
Rh 13.017488371998171 12.049001379067503 11.753459449238708
Rh 8.371239153513256 11.885595926459093 8.076240455708955
Rh 12.85046129230992 14.704834898392196 11.887756051503345
Rh 7.28996711687364 9.61601109751158 8.922926458628645
Rh 13.786441563293332 12.82711068641981 14.00489029650867
Rh 7.28489253345294 7.67117298128923 10.667282955418326
Rh 11.321683167824125 9.211660536475327 13.731423245782645
Rh 8.437329813634618 13.729536864214785 9.993451187087844
Rh 10.686960287728654 15.146408632441709 10.311665261859481
Rh 8.770045647785174 11.021246954703903 10.620988648278823
Rh 9.75671389224748 11.428633999341088 13.136850895279718
Rh 6.861162943656185 8.183291844765199 13.249162009943149
Rh 9.040309637420531 8.846398948135095 14.897168909685712
Rh 10.671136035101384 12.697790824259599 10.854166350383625
Rh 11.69288562193411 11.423080071477385 14.905771501379766
Rh 11.381388128440301 13.349135303894629 13.355163315824507
Rh 6.497247648734997 11.967382055798453 9.832760387909191
Rh 6.597302494616087 10.035297745940083 11.545443850878714
Rh 9.381226998036404 11.14379491710052 15.757037051914413
Rh 7.440192954142221 10.615720714838908 13.925002221626789
Rh 9.297888104670955 14.334571297879446 12.383340980397291
Rh 8.3518340645216 13.095576710007261 14.425461914184261
Rh 7.416462238866618 12.558432758875586 12.162388135835602
