40
Energy = -234.6762909 eV
Rh 10.981668677873307 7.977771387803526 6.419419005636329
Rh 6.8108366553968995 10.221525345004862 9.91041853472003
Rh 8.07510833189718 8.068875154657462 10.321652115186273
Rh 9.636108477410946 7.566074131966166 8.427917492710018
Rh 6.745779218630115 11.964463307931283 11.901721417569334
Rh 6.850785358567432 13.571030330425772 9.938191985074003
Rh 8.418911476937046 12.353942672971007 7.8233526355086385
Rh 8.58990182753987 7.495165383311082 12.75697462606798
Rh 8.219833652383302 9.879467773221686 12.14081636937945
Rh 10.371364590419176 6.555828801706385 10.640387127837766
Rh 11.753619960780423 9.344976251745821 8.253376733946814
Rh 9.038958794221848 9.987753401346854 8.44462351735175
Rh 8.705390693730955 11.794587884200634 10.269159934029389
Rh 7.809240003727937 14.187278005665247 12.35128270237058
Rh 10.366771967691463 9.215248304457521 10.614109444702294
Rh 8.636723595972056 12.053320263983844 13.66332211692039
Rh 14.003306722523849 9.702773069961355 9.311586320737735
Rh 10.978922616273408 7.884050007817268 12.713954100875487
Rh 9.869201278598736 9.709305378414978 14.103477720057507
Rh 12.00311674194772 6.8215319654102835 8.537493396007648
Rh 12.710421876844944 7.7632219352903675 10.706245298711702
Rh 12.46198100163292 9.736085133793642 13.773879142368187
Rh 9.306336186591146 14.189393985423713 10.303206710479222
Rh 10.625870185717394 11.333447541420052 6.940422934345646
Rh 10.447176812836643 11.36183234533176 12.101044504552128
Rh 11.184219449469914 11.536452492028586 9.585131042896927
Rh 12.682669954555301 10.311487850145022 11.387889856120644
Rh 11.17791368891733 11.965202913448834 14.451365322900374
Rh 10.643528416107076 13.596720525362644 8.163280146653113
Rh 13.053679187936586 11.502961552431339 7.778919520598569
Rh 10.399087685039733 13.803007418788505 12.572748027065977
Rh 14.827627139095584 8.957115775992953 11.644980364050777
Rh 13.451059871159881 7.537829709414691 13.149660427857995
Rh 13.882545754877425 11.609780872907807 14.469634521884263
Rh 11.857802378067902 13.83359843481702 10.437067854678796
Rh 13.175500069443508 13.926817619743975 8.294347668514064
Rh 13.956063910788611 12.216640408184816 10.09361656412592
Rh 12.729243469541077 12.69120218814331 12.526067564341723
Rh 14.974712527769036 11.343308459918145 12.214520982842325
Rh 6.053112750794206 11.895026975118881 8.328837208032601
