43
Energy = -256.51237091 eV
Rh 13.281449372610716 11.233520605216388 13.953138356695092
Rh 11.300071383288804 8.178475475016691 11.034819968960312
Rh 6.997406551235003 9.747432707757318 10.98079533462462
Rh 13.430609484691605 9.31923610233827 7.2774990678594
Rh 13.381211454626692 13.704722408680265 10.068128723878113
Rh 9.04236592881635 11.201992533517844 13.812636791742843
Rh 6.966564686430954 11.981488005875603 12.441460019365948
Rh 9.382484132170552 9.245050037832382 7.141090295976524
Rh 11.12699470058356 10.404522414129582 15.13566550331079
Rh 11.376859481366942 8.348416234229276 8.445179245722063
Rh 9.213669700385042 11.471666799533246 8.453251528908355
Rh 13.168878398777503 8.918557529294935 15.026980411670474
Rh 11.259967746736784 15.164502296832474 10.077708702721042
Rh 11.296417981645176 10.580771564657129 9.816623041224497
Rh 9.060739382734722 13.532303091262976 12.596549276267277
Rh 9.098546986915656 8.868010899041323 12.305508120277462
Rh 7.167717586720723 9.93647834129606 8.447520141280624
Rh 11.325748752552197 13.026159988072779 8.57309841832425
Rh 15.440516876991722 12.049895601515866 12.711685602908958
Rh 13.475827544453555 9.064623940842154 9.841041653233177
Rh 15.525714739820952 12.188464580096523 10.054723200113692
Rh 11.22631179816758 12.823029290311057 11.273049826231349
Rh 9.097433759098983 11.282633625419594 11.129757947828066
Rh 13.406818351949987 11.32621459592985 11.270039563369988
Rh 11.385634962416567 10.802539635449083 7.191821989028272
Rh 11.151463681750219 12.751434237774598 13.978105244430084
Rh 9.181587624220573 9.002459652179205 9.705736354402841
Rh 7.0493421098173705 12.11460391443601 9.764007752605758
Rh 13.454776008429699 11.512043012491405 8.585702264417845
Rh 11.209319473186964 10.44308177810375 12.502119278456853
Rh 13.298524125080014 13.566511918103524 12.708885102720306
Rh 15.553277193712576 10.021640610767133 8.72668239207993
Rh 11.203904691426493 8.081172015661146 13.631012346123928
Rh 13.3884551469772 8.923570177413605 12.462970899240279
Rh 9.146733334586923 13.66783717881765 9.884672122102195
Rh 9.13363418647888 8.848042776673184 14.889905091954999
Rh 7.00476879736677 9.679785735931466 13.525161806777877
Rh 15.387114221056956 9.75820125956976 13.80426511021043
Rh 15.542002884010481 9.814411058044854 11.26393468300392
Rh 11.180603875252043 15.029673620594574 12.713366213709413
Rh 15.42098758682582 14.244572871741532 11.486672839808772
Rh 7.009772883917304 14.193141311755069 11.20660078019752
Rh 9.175169657644195 15.807033498677205 11.364728452567277
