45
Energy = -265.94756608 eV
Rh 10.900209104840778 7.800698270840407 11.897954427521555
Rh 13.749188668503663 8.249303504342702 8.524526857555506
Rh 11.523667817361174 8.529350957967775 9.582477348619708
Rh 13.421664104547908 8.07931256187628 11.314469965435109
Rh 8.576030321254859 7.1816062831423215 12.302560644353589
Rh 14.635673017064034 10.386820906090444 7.269011150765477
Rh 9.109323717853771 8.891099952823112 10.377013041381892
Rh 12.097656326244815 9.887653156425483 7.504097627396058
Rh 12.280957515173668 9.32430464571639 13.456804747188594
Rh 10.348300258933156 10.782840688670614 9.080645093698497
Rh 14.721090898494213 10.111909056916968 9.846967550896887
Rh 12.406719611723055 10.428035442883354 10.972871015192858
Rh 7.6895756217987135 9.499730313354865 12.468500025664076
Rh 14.488696066832851 10.180773422839524 12.418625293300256
Rh 9.700711295646625 8.714789716233359 14.142628529703845
Rh 13.086303156893997 11.808646855558445 8.772010033837562
Rh 8.3494846120788 11.371103660991295 10.635339465458639
Rh 15.663732630785148 12.210926565646183 8.55659780027648
Rh 11.120907459874207 12.461583339786666 7.326243898398545
Rh 10.136395677875436 10.373891184063003 12.304558209933393
Rh 9.298749230062715 13.189409870361285 9.063448722577636
Rh 13.536944878215653 12.778319030457816 11.225355690952824
Rh 16.001188545588093 12.012753764231807 11.086517951709068
Rh 15.10377494814591 12.42081228227424 13.389841931760195
Rh 13.728549414591706 10.930156713930604 14.964815885343606
Rh 8.513731635590494 10.950210680028826 14.419385356721374
Rh 6.6065446712996945 11.814819233437523 12.480717038304244
Rh 16.81903856299705 14.02384117517342 9.692401906611765
Rh 10.972471845409633 10.822025234227928 15.179781330889721
Rh 11.815962733675153 14.073200262699102 9.200770050957509
Rh 14.27409308513372 14.282324085601571 9.296534974758105
Rh 7.56242213613553 13.786806373206902 10.838445278732404
Rh 8.960638515858 12.87001567100845 12.738618958239856
Rh 12.161754852150338 11.944821746686593 13.211308565298186
Rh 15.299056657933097 14.518561932283221 11.693986520929839
Rh 10.880461419853571 12.487667347535414 10.972144911675866
Rh 14.717399638955131 13.325297199294946 15.643450750770755
Rh 12.612205332817133 15.236848353182495 11.419477709956118
Rh 7.134928272232293 13.054697864736362 14.526316824933321
Rh 12.242243792799398 13.122974915596577 15.471536020653097
Rh 9.763633876410964 13.10391287440948 15.212034110809839
Rh 10.034911559687368 14.844673218271266 10.954615031977028
Rh 13.579131525591533 14.373621216884874 13.610915873462826
Rh 11.030648334118627 14.254342695374563 13.255153238811678
Rh 8.04967856110199 14.209957683073045 16.40497454672143
