40
Energy = -236.71902044 eV
Rh 14.603661734018353 10.336592197819776 7.960572876053302
Rh 13.531184358025882 7.995691142749113 8.683474746427118
Rh 15.041782720615958 12.1474402052103 9.821757354325365
Rh 14.285659996553155 9.878859117795272 10.464620306242432
Rh 14.093799537860209 7.493294965035364 11.26699023033986
Rh 12.176774908017125 6.205653708308644 10.10397676602937
Rh 13.199935177506132 12.462879786456085 8.088452764280968
Rh 13.06428187504386 9.376608885440742 12.73758591713699
Rh 12.086586269944853 10.05924250370607 8.062315714212316
Rh 13.816990371344902 11.79308895696022 12.184543214844354
Rh 10.935119790844984 7.803788698816837 8.438990026600546
Rh 11.887481616540715 8.885564626552153 10.537922993778492
Rh 12.137646054855406 11.514900380128113 10.233203374959343
Rh 13.098965212491843 13.793817846238957 10.465108754444799
Rh 12.06062888726591 11.037657522575467 14.29033647472328
Rh 11.84709447325953 7.068125155700129 12.52346046266525
Rh 9.90057022518286 7.288795055628239 10.895269538814285
Rh 11.63701832421159 14.526529587794522 8.465230947382281
Rh 9.81247399175382 10.084752023861435 15.252415646635816
Rh 10.653516281057842 10.53514135874079 12.227875366493342
Rh 11.80148071649563 8.475828299144519 14.739271374422204
Rh 11.625207750153395 12.987179252358866 12.49920994538257
Rh 10.644887250333426 12.224542882212802 8.193756704723915
Rh 9.813626066054525 12.363238998112376 14.185797169686708
Rh 9.454703554191225 9.781827004414758 10.016456441054807
Rh 9.566400959581468 9.961774395490336 7.525763484398541
Rh 9.786918781337237 8.465952986390162 13.222098222812829
Rh 8.470834483054643 7.597658738048272 8.86409949476947
Rh 9.02686094227897 14.259195232519765 9.053419239342983
Rh 9.741877188958183 12.436564113722968 10.631859584739987
Rh 10.778343201889216 14.786115573579062 10.832836636487023
Rh 8.278350781477403 10.604119127725856 13.155231041200285
Rh 8.142566724423668 11.91061245980107 8.594978741506067
Rh 7.783458389964115 8.647928467386148 11.495089506200346
Rh 9.952930218666921 14.732282808518738 13.24466394343192
Rh 7.321380569512711 11.124967702802133 10.911032004500514
Rh 7.094313234710589 9.659679304392842 8.832768981221863
Rh 8.322113973145315 15.434211197232015 11.246561760376371
Rh 8.168867251109445 13.159662632293019 12.33624911646996
Rh 6.822147325362818 13.566676267432406 10.183194299978645
