49
Energy = -290.57284993 eV
Rh 12.312660576835524 12.68482365093845 8.213595947731465
Rh 16.08263978645531 14.802378617637906 9.635066758973355
Rh 13.637561230352135 15.088705659209264 10.318560254299092
Rh 9.016100920670448 14.212287844901047 10.131186131370056
Rh 14.485219286525469 12.894518086618302 9.3188535828343
Rh 12.230924193000115 10.83962719609959 9.730551933165392
Rh 11.411259693603942 14.150265341884777 9.851382914832469
Rh 13.285186721140603 8.58917894296161 10.038081604331486
Rh 14.926627864439611 10.46944454092452 9.860141117272974
Rh 9.736512716320169 10.903684391982424 10.683609011690706
Rh 8.957563721118788 12.8329726659241 12.10217394231918
Rh 16.805010252711345 12.24122531809628 9.927651870964322
Rh 13.456156888403743 17.064285060126366 11.967715562907928
Rh 16.50640804588304 13.890024389558818 11.952590381810886
Rh 10.06025625453489 15.822673832476355 11.742835972969857
Rh 11.52319699422034 12.440991234471904 11.562241892074097
Rh 13.53088227439049 10.28760792354065 11.934861248678645
Rh 14.02857852705145 13.059329131423837 11.81317625964951
Rh 15.86941440385132 16.430597014242547 11.565651474082332
Rh 14.75071822596883 9.97163383596132 14.14511200664812
Rh 11.166586709368252 17.810302484238548 12.497545664807042
Rh 11.317335578564274 9.154072669114736 11.534218037090323
Rh 12.20014741976413 14.803445924434474 12.498531940286453
Rh 15.930879016415755 11.237599544636744 12.086121349396091
Rh 17.593399715445496 12.299797934694121 13.770824767036451
Rh 15.071265511052966 12.740699386465714 14.19001903231911
Rh 8.80742933234652 14.995481189491997 13.63894928000666
Rh 12.669071471157068 11.758438540030117 13.931494178123268
Rh 10.217820740219274 10.833492398286312 13.297927202344841
Rh 14.63956130183305 15.250365935588901 13.400483473898529
Rh 16.902892825931605 10.329504189950113 15.143435796341596
Rh 10.662031031224785 13.362776248313812 13.958937006864224
Rh 12.272844601385204 9.205402171274311 13.887694258065281
Rh 7.520308219738605 12.884984750789855 14.093489173470287
Rh 16.615411127540476 16.985706007465872 13.867950003782019
Rh 12.398366317112197 16.639521339539492 14.332104033819181
Rh 16.97963667439905 14.666325306378809 14.437403001303473
Rh 11.30861912669892 10.732018929661864 15.776330988186036
Rh 10.555031269607218 15.387773602431682 15.39972579915882
Rh 12.901656681630895 14.122050822906749 14.968019858876847
Rh 14.614394652066462 17.04716775909647 15.334796995178015
Rh 16.659566901582004 12.666391144648179 16.17525222432498
Rh 9.285500258567554 12.146673016050661 15.58931123766414
Rh 14.470638398019844 11.356539074254515 16.268679385741972
Rh 15.067565014782394 14.80185640883348 16.100418402324312
Rh 12.361043645905868 12.714264668729754 16.916929181380286
Rh 10.187279951326138 13.743721951347654 17.147338006726816
Rh 13.282200453274658 9.226067781985751 16.205884286729006
Rh 14.574631569302628 13.267298234120295 17.901139659889587
