44
Energy = -260.75943724 eV
Rh 6.358433344402901 10.49882887278463 10.05933681047559
Rh 6.538079707176031 12.733503717704115 11.364449352358509
Rh 7.238295435786598 8.448921907023365 11.543470977065194
Rh 6.751781002064188 7.93734188680552 9.12058883998047
Rh 8.081245814479164 12.308091633274161 9.304694978479992
Rh 6.242368805472427 10.54044391241665 12.670398290183325
Rh 8.34343663910756 9.805689303683033 8.737850599091658
Rh 9.883703527476456 11.633057605966929 7.574261166991915
Rh 9.591251843179327 9.286410106771818 6.604229821847588
Rh 8.051243710675424 6.276733189760118 10.564192709689882
Rh 9.12436029043789 7.231919062564277 12.980210199395334
Rh 8.03608991746122 12.290999886822506 13.46004749759776
Rh 9.665447261293178 8.169302789268098 10.744398667885076
Rh 8.951323151835481 13.622463775027375 11.345617029268816
Rh 11.570443692671695 7.687037397708937 7.120630718467404
Rh 8.630113520693289 10.826573042062085 11.423772827344509
Rh 10.065187256764606 13.975389281573367 8.719021340249672
Rh 8.415150979878296 9.604750599369751 13.602955678212282
Rh 9.251017154662517 7.391165962015974 8.408285523788292
Rh 10.89867253468081 9.639672395403446 8.98958040985096
Rh 10.554582282015225 12.015156508519276 10.1992647935765
Rh 11.971720724731641 10.277594364573561 6.6740097706629316
Rh 10.339831914142318 11.258227264744251 13.725496066893173
Rh 11.648516750545044 7.411030990496436 12.13559723536256
Rh 11.881232924982962 7.379346879044436 9.624381841369571
Rh 12.268696217151074 12.516036915034311 8.003334073116829
Rh 11.191392841459477 9.931770164777689 11.688968484884667
Rh 12.86683338402113 11.042561085564737 9.96990517138758
Rh 10.261518652121973 13.791028944624214 13.530577631472722
Rh 10.805667057371489 8.815638686387183 14.118174120251592
Rh 12.340633979760081 13.940781896739118 10.157617206789382
Rh 12.194246887673927 12.45760509175568 12.228025713586206
Rh 14.311455789571783 11.161168620880689 7.3186094558545545
Rh 13.391929182804349 8.988981477386677 8.4004268625452
Rh 12.088912204593532 12.584902811766243 14.925070441973896
Rh 10.835963710286137 15.2379996943305 11.552089075319483
Rh 12.89683421200667 10.33227505287861 13.577823470037226
Rh 13.573122200757112 8.901603575162536 11.175440469988482
Rh 14.629220664892639 11.256969276137644 11.789100344383236
Rh 14.562929783288952 12.79297709953546 9.396474928450465
Rh 12.677611315583166 14.653838588622074 13.498934059250693
Rh 15.281829438349748 10.197424272003921 9.559674995213868
Rh 14.367285134508403 13.849760900523963 11.699299598847258
Rh 14.429191392415119 12.524107578270527 13.902969538185925
