43
Energy = -254.2900231 eV
Rh 11.293256193736253 13.963449382909628 8.159438312099782
Rh 12.506475561987651 11.69896048986958 8.173409706981735
Rh 13.888569626023097 13.996062107069347 8.432116513206493
Rh 9.885236185980673 11.76059496941957 7.981949810962717
Rh 14.96313570219824 11.59732783275179 8.860358244515693
Rh 16.384342872629496 13.56844098232087 9.44748222893481
Rh 8.792316633650955 14.146944268503995 7.8799339809139894
Rh 9.757488968173952 14.742528696869405 10.171863618718136
Rh 11.054238134028656 9.667727044909256 8.939298882013581
Rh 13.153157576415873 10.237101433721064 10.228583439015527
Rh 12.291238047927134 14.926310850200304 10.366740968983196
Rh 13.683355614272262 12.77065295852005 10.697434496808146
Rh 11.00039345525846 12.396316343322168 10.198792655419432
Rh 14.791723400102164 15.23114747482937 10.57013287058352
Rh 8.893902697559778 10.254982330427017 10.02364122499968
Rh 15.39054112745093 10.887677283591817 11.357061398067703
Rh 12.40336940889216 7.728926199789068 9.887616674574858
Rh 14.683089777269398 8.348736989251991 10.965730938090667
Rh 8.20465205109466 12.679804491408136 9.797217323542318
Rh 15.850767082220829 13.352709846193557 11.93874947013824
Rh 8.45397189534053 13.974108802160446 12.153507860108895
Rh 14.418876616838185 12.029622482033387 13.572915653124616
Rh 13.48919752360772 14.322605542785288 12.706248233941515
Rh 9.785503834079329 7.788256538401427 10.209905463538234
Rh 12.126751998735413 11.601060131734604 12.380963713120268
Rh 10.99567997468791 13.951593223074681 12.391009255196964
Rh 13.68594271960306 9.629031806928767 12.903608648905033
Rh 11.25619713915927 5.760790930505858 10.947424752709725
Rh 6.241307307111222 13.40873321134231 11.088416099394328
Rh 9.489391139906475 11.606142675648291 12.10659638957644
Rh 11.182402456030568 9.264883852500859 11.759733805434927
Rh 7.0160044570779405 11.049359840233713 11.748621983366291
Rh 12.839489080200089 7.194415899877898 12.365426327900254
Rh 12.093168036887482 12.94864083654268 14.54867317809696
Rh 13.051765341938587 10.558611489095389 15.184775544529721
Rh 8.570603039408054 9.018572744265065 12.250556340501959
Rh 9.394544532133924 13.011954196609443 14.299397457167101
Rh 10.235798945538233 7.100839275031768 12.814086149845444
Rh 6.767835801075169 12.815395446518313 13.569422084178695
Rh 10.655788077713433 10.751394231491522 14.403047444924345
Rh 11.830674590832913 8.47297395214787 14.317558420391629
Rh 8.05368649049136 10.72891459398511 14.111775389583306
Rh 9.274389645296692 8.607852974940672 14.692750587921248
