50
Energy = -299.3042728 eV
Rh 6.892094813136165 9.935947260044967 10.55457043272075
Rh 7.9793916689463975 12.372989450169081 10.458900243086552
Rh 9.987348288865567 12.743766131425065 8.821841704383242
Rh 9.238723782441346 14.655861399800058 10.372362064518764
Rh 5.8966649202769865 9.094444885826949 12.723056541618092
Rh 7.977094402629889 7.982004449520027 9.30579207223125
Rh 10.3596338633701 16.962686477316424 10.29228775359791
Rh 9.005580870165295 10.366139179402413 9.198310962441473
Rh 9.148351559808672 9.782668906402424 11.71680901075581
Rh 10.066298013438036 15.772476072820348 12.52500264487548
Rh 11.24118024028936 15.14086479560783 8.754156158866028
Rh 7.848342647255695 7.639605028040331 11.942799418636323
Rh 7.188022015688908 11.310485429823915 12.693396759957592
Rh 10.235939673281203 8.318170153169083 8.162887251294894
Rh 8.583138435321718 13.57455562854217 12.630533150336687
Rh 12.049740354413332 13.222964839468403 7.324631770556007
Rh 10.418763102663016 11.997772702092739 11.355461005647161
Rh 11.745999718319071 14.175500189934196 11.079548390071775
Rh 11.06442255763431 10.69993715983922 7.678332266810479
Rh 8.079844024800849 9.2548342377412 14.023081836445467
Rh 11.619754516082399 17.820532606963365 12.312856531615672
Rh 13.703715978311166 14.300970712508924 9.195054935721986
Rh 10.092236886623144 7.579455228924324 10.688359588392188
Rh 12.874730475104887 16.36276361534099 10.547643843484849
Rh 11.475353068845036 9.806835340086485 10.283284753076636
Rh 14.367673225844708 12.157149059669344 7.819313634952953
Rh 12.376460248183822 7.604772108426092 9.271247066440132
Rh 9.460616385611063 11.536274268190526 13.885490528162896
Rh 12.380166500921627 12.063766165727692 9.57664583082746
Rh 12.582774565612292 15.638996201515237 13.112452935627992
Rh 14.808800609482832 12.197407722070531 10.315872083841933
Rh 13.291240265892569 9.913633328037093 8.287690207999846
Rh 10.144035672915958 7.803331589253627 13.320070893073304
Rh 14.278783803187707 14.317503964882281 11.747002658237271
Rh 11.022753288129831 13.574368749758472 13.528219821596847
Rh 10.322411876162965 9.543408531787893 15.284230588471061
Rh 11.471741217615659 10.121496593213601 12.957596261434423
Rh 12.920492571819024 12.082298957750304 12.17313253771994
Rh 12.363961499325914 7.892573064605704 11.894707659287223
Rh 15.738975453193033 10.234526464000332 8.904450986414133
Rh 14.162633467138608 8.960711684020527 10.44500906679721
Rh 11.801685607727235 11.640568357056251 14.981338191021132
Rh 12.461961172887747 8.287370165206593 14.418788620128895
Rh 13.53311544694035 13.532408419653386 14.25423940365636
Rh 15.410454273476834 12.291632773936053 12.864533148500755
Rh 14.322397668438079 11.120157362759475 14.952189513353364
Rh 16.094557400345884 10.276727698817139 11.448443050108807
Rh 14.035904918083704 9.717204216327422 12.92243397087589
Rh 12.816621753159362 9.773578800540623 16.356938881254877
Rh 16.358877224178844 10.14536386597044 13.938463363059975
