51
Energy = -305.37406413 eV
Rh 12.265575996413355 11.709422446086691 14.042514368500932
Rh 9.39924273333543 11.986576282438527 10.296729784620096
Rh 13.981755156929749 17.103866943165652 12.330099924422848
Rh 14.131509623103254 12.718270510449333 8.228230029376647
Rh 16.686107981473825 13.616597360387422 11.94408063205457
Rh 9.847656884624605 12.8501320779148 14.21399395316288
Rh 8.367448155520423 11.479206468021202 12.779904049189335
Rh 14.513786847901784 11.796486002876806 12.636823864149964
Rh 11.993010928783919 14.335754385084956 13.81812589728201
Rh 15.319874504546915 11.597426861960264 16.314794990955026
Rh 11.671315566221892 17.042083282634966 13.43215669045296
Rh 14.268264453219068 14.402047450846021 12.40440500465514
Rh 9.696513111253756 9.791520039916325 11.69062552397911
Rh 12.117757643581545 10.625100943475426 11.682563179811954
Rh 16.15949420346525 15.099318480422852 14.097644308269839
Rh 10.267767972655603 10.15127405744317 14.230765243793169
Rh 15.085553474532006 9.575481507956864 11.360232545150755
Rh 9.767577749554581 15.475713818767277 14.160494272264568
Rh 10.308428315989337 14.351667941111366 9.966428986266815
Rh 12.674259770884177 14.733987941504346 8.823599690494849
Rh 15.672523074592693 11.879598245505527 10.213328797071467
Rh 11.964194572784628 17.927893567543816 11.048526135976307
Rh 11.137446151493426 8.025936768419971 12.782042527385688
Rh 13.97556344235381 16.70702428540025 9.8375222739809
Rh 13.490839502708518 14.72404097230992 16.778507012518567
Rh 9.854635674270474 16.337455912372956 11.71672611349943
Rh 13.423514162440789 9.111445474432161 13.207765537598377
Rh 12.179135779300228 15.39024860030681 11.334096107508346
Rh 15.159526998307298 14.462005911584113 9.9367184847781
Rh 8.803888611539758 14.004251723969084 12.136991373811899
Rh 16.171703321004276 16.09892766314699 11.629618944416604
Rh 15.638429801626446 10.066049709796047 14.167202392982464
Rh 11.664968541299071 16.513260658426283 15.917263613987476
Rh 11.006892582523253 14.130231573390773 16.162859765881514
Rh 11.047933770214568 12.897746064004 11.921847142578027
Rh 13.572399107722967 10.551214830426831 9.456336271720149
Rh 10.24461408652062 11.661556152028385 16.363382248397212
Rh 10.366990761331014 7.723267923175377 10.438359855904324
Rh 13.167815446832645 12.850115453889194 10.601821664593968
Rh 12.709169036000537 12.250163947481642 16.658779550868736
Rh 12.82579783105003 8.426889454063321 10.652595237112068
Rh 14.193825775252765 13.319498657973918 14.785187152722985
Rh 11.48887539739027 12.367121311828477 8.69515316536086
Rh 13.525340863060261 10.071638210515598 15.560133506265906
Rh 11.865995345105098 8.286832664745791 15.094761413421237
Rh 13.793946769375497 15.978979585524325 14.599420960173537
Rh 15.976503154571827 14.07943722020246 16.45216313180056
Rh 17.08053173865812 11.080618141188744 12.205797047220194
Rh 16.631714773953455 12.520668827607023 14.273388402922478
Rh 11.615212832779205 9.817017592931325 17.12758740710213
Rh 10.968092082284425 10.037850155682511 9.530839927713968
