50
Energy = -298.67923086 eV
Rh 7.32126002088895 11.99156070854975 8.210219876118858
Rh 9.364898849375193 9.304103637614983 12.485546203194946
Rh 14.601424994741956 7.929148059814718 11.221180594040716
Rh 15.103810909522407 8.029141911864816 8.621045352684035
Rh 10.200864969401778 11.000151492126179 14.610025101985697
Rh 7.998722531642338 11.300020174538195 11.529674147938701
Rh 12.255187283955046 6.882049289644502 11.983255035034917
Rh 13.529534452480114 13.931832337246998 9.758078013940082
Rh 12.717216960213863 7.578105785316112 9.517799911722262
Rh 11.303137405779154 8.744101258143381 14.146660357363096
Rh 8.442790118850356 7.739457905038873 8.791447404331057
Rh 14.682266879527907 10.360152564922657 12.119576621914476
Rh 7.81548478588031 13.813390171322272 11.324085631964145
Rh 13.507620904772653 12.077067017283941 7.963257874810782
Rh 10.812354540848656 8.499312667813175 8.174836666875311
Rh 10.286429097227627 7.547736235522206 10.551148445606596
Rh 9.338189936487687 12.634539577862252 9.624450266671852
Rh 7.671753452537717 10.536655500214799 13.95641155213738
Rh 16.394314233448274 9.65692264022991 10.291911500146968
Rh 7.291659648486673 13.819148903855696 6.453837596855448
Rh 8.835696525326385 12.866755017909183 13.529469020669161
Rh 7.345222144859603 14.432788544513773 8.914602044399162
Rh 6.140007854257938 9.707816775824934 11.945433776616873
Rh 12.67276733318079 10.884888558786363 13.684214046993807
Rh 13.501519240869172 12.61065934549482 11.966273900835679
Rh 9.655936219552181 15.044679082302073 12.54839514782099
Rh 13.691296115115213 8.436164483809842 13.546622777067991
Rh 7.214770859250111 9.83282489019113 9.585610816586625
Rh 8.809997087679454 10.048531864427778 7.523753664486244
Rh 9.034574669546327 8.712202003354504 15.139370816647816
Rh 9.461116340611927 12.558807837063286 6.928429061462882
Rh 9.845403887278502 6.8826167860216385 13.101955338083412
Rh 11.409066995376648 13.987396277680277 11.184671700835139
Rh 11.38399580318644 13.670709844794498 8.35787291922094
Rh 15.19853183824083 11.983575780047207 10.019839101721532
Rh 12.101663696943705 6.4305776993791754 14.428461309557642
Rh 13.76473094248045 9.924551689626371 9.764572908626592
Rh 9.882309512935853 10.120316030440307 9.954484614872964
Rh 10.491206554036298 11.614486914047035 12.063134116065982
Rh 9.585720331146602 15.194825798707344 9.904383000448954
Rh 15.583474872106008 10.468061569287405 7.910012477087544
Rh 6.0260770364671 12.117931846665009 10.317859087132394
Rh 7.189339466795376 7.9208478685023405 13.620782615178724
Rh 11.488361919934658 13.209089971686184 13.696195560398621
Rh 9.350924621998633 15.0392505873783 7.405957695150233
Rh 11.968400575968568 9.434144821772945 11.559777073358115
Rh 11.212727480593573 10.995792584890495 7.7519754421668585
Rh 7.772661856530124 7.836931565699197 11.22993156709743
Rh 12.036323720585354 11.689171059595802 10.087618000323186
Rh 13.148864232174999 9.410616772273197 7.435503954846846
