53
Energy = -317.19393079 eV
Rh 13.721939299274114 13.687601665271888 15.339887468356727
Rh 11.589179611334956 12.32190298155404 15.33402227078503
Rh 13.909455495034036 11.15446702807601 15.427318774306466
Rh 14.076050122916921 8.715861660400686 15.776627206577627
Rh 9.412222077408211 10.936143313827996 15.411383651879563
Rh 11.648528865869732 14.563249256344644 14.143549649568694
Rh 11.735928526459936 9.740923018807303 15.581559788988995
Rh 9.590559555496464 13.096702424123691 13.855119539322025
Rh 13.952796773320742 14.78740169740513 13.067591087309038
Rh 13.226687697267026 12.201588522849384 13.172918985928032
Rh 13.50595179385095 9.567961768943135 13.406372996447061
Rh 11.798823026189899 15.774059280868881 11.90053118987604
Rh 12.23145260252187 7.390603012643597 14.71613851374446
Rh 10.836050201843324 10.872084594801299 13.284018172941117
Rh 7.327146304992923 12.063511555173678 13.790550039896223
Rh 9.569550017897866 15.545921903752246 13.111484524243835
Rh 8.246662513750257 9.896823975575897 13.258179809901602
Rh 7.665339799700265 14.058862204640038 12.289998999484174
Rh 11.305611614297499 13.06953326167544 11.693357992805359
Rh 14.085082810719287 13.368847097419353 10.985058618328729
Rh 14.81156496463717 10.991189935046172 11.493967398312245
Rh 9.937950360101375 8.38435278163035 14.41830218801627
Rh 14.120309641055057 15.929424777591297 10.794371040251155
Rh 8.844447180231292 11.806722427473355 11.589896428796818
Rh 14.228233926258747 8.53762623333527 11.084857643874086
Rh 10.464537318905595 6.106255119998021 13.197384620690697
Rh 7.6043534329687335 13.547419283370091 9.882748141640109
Rh 14.585930756728715 14.527724035369737 8.721747403849955
Rh 12.307209119483133 10.520504144107289 11.23223333649538
Rh 12.427786380102555 7.402900398087146 12.29857636570787
Rh 12.12838418772283 14.827742506213577 9.570162656443864
Rh 15.07386356501327 11.99803391087259 9.02325177848559
Rh 10.421256077751131 8.771087119403258 11.902048707282619
Rh 9.748554711148898 14.871551400477532 10.632598033080159
Rh 9.985658371983488 12.616758059227367 9.434139724023652
Rh 12.499152126324065 12.247192476642368 9.291601529241754
Rh 7.679326944092612 11.045723165374195 9.331558596422658
Rh 13.646152864788077 9.88458232019478 9.05477713888429
Rh 8.173458245644845 7.421803351527293 12.810778163961391
Rh 15.07558768693023 13.197257043707896 6.701846609469857
Rh 10.109049757230514 10.106531741143367 9.733700300639594
Rh 8.027525121225697 9.084782031727698 10.823863570928918
Rh 11.540387392753853 5.712252421837401 10.745038436839556
Rh 11.892736565698964 8.091597126793449 9.745491647887228
Rh 8.342264807272915 12.796864648109887 7.476616771037783
Rh 12.62016405562077 13.863867050760165 7.202387628136081
Rh 10.232413391425553 14.582961906810787 7.894446683883635
Rh 13.35297735882615 11.358442258726347 7.017570070428828
Rh 9.394316038615449 6.835857588858378 10.657800675732023
Rh 9.030961886418618 10.221159548640546 7.353523667352796
Rh 11.525723444713444 9.57982874772128 7.646099087649445
Rh 10.82023565172061 12.010405485746054 7.138278483554452
Rh 9.632981446086262 7.94945580126103 8.449964842593516
