50
Energy = -299.26293285 eV
Rh 7.617244648609451 10.59065019153849 5.506679352722782
Rh 10.048070498534395 5.798193801537432 11.59990404527623
Rh 7.34411631710385 11.97649275830953 7.682419879505123
Rh 13.822271301456722 12.283555367930106 7.888629851929966
Rh 9.086764255375293 13.98959825731762 8.048899932855917
Rh 13.169239871612737 8.460971676507585 13.610033925479478
Rh 9.20135873551371 10.271032562370825 8.234564459335978
Rh 13.259797784695522 7.313674759000002 9.293917774382743
Rh 6.823386588632562 11.781510442361883 12.071094349864264
Rh 10.735292751205419 6.792533099481587 9.35564329024366
Rh 13.015510069650498 14.480890149300613 11.92733224636976
Rh 12.963893436150789 10.799201685195234 14.471572287964749
Rh 10.777052899135777 12.054306080074639 14.10800705840794
Rh 9.856174521863412 8.408231093194782 12.178222173845745
Rh 6.912009740062689 9.250558542848156 7.60598447769121
Rh 11.678511730825505 10.870923990604123 7.334876075772109
Rh 12.945606943459365 11.422184432366908 10.065890767240935
Rh 7.778709833531632 8.061452114569828 5.481125780132178
Rh 11.108240417536711 6.9111013360512255 13.794634408925042
Rh 6.959347111211679 10.511197725976386 9.81154709151451
Rh 12.095575800363743 7.438219061584026 11.515527411609641
Rh 14.715393796026838 13.216122966727298 10.354937641138944
Rh 6.765453952934394 6.696918178319713 7.517268596404659
Rh 7.253325418092732 9.25204951622913 12.019724514599439
Rh 10.463206497706613 12.242437305106703 9.239888060843029
Rh 13.75235965125962 12.016963061834566 12.41135325617156
Rh 12.463306656175128 13.88227920560048 9.478213943612644
Rh 12.940817921308032 13.441078291084663 14.335998282003656
Rh 6.3344070003017325 7.818258913008805 9.8024622557445
Rh 11.567195831295177 13.419513508377632 7.174397804432057
Rh 9.338732108713423 10.788419829138466 11.097158381683043
Rh 11.2725649720636 9.42443510839739 9.702576609850238
Rh 13.663843421669526 9.644916919472596 8.413033966221064
Rh 10.808790597271694 14.571670042188154 13.280434413239558
Rh 11.673893105275138 8.25245083596415 7.418146461059012
Rh 8.047699671351552 12.859440976806868 10.040263097141276
Rh 10.706310461127586 9.413147017016092 14.455741548024228
Rh 9.538689706584625 12.055029569036456 6.39135056689617
Rh 8.66593855743289 10.715245407861483 13.623855706595949
Rh 9.947542860661304 9.502143901943525 5.907242379026558
Rh 9.158566761121495 7.627091457789824 7.51037667376797
Rh 8.306001910055887 5.991342370930417 9.523999657897757
Rh 8.8742833181277 13.12069377040682 12.559659785184753
Rh 10.093602003813158 14.527309681113723 10.514380307366972
Rh 8.424092225435311 8.161854028691932 14.203072411589888
Rh 7.773722197265454 6.813150267506843 11.938007306615601
Rh 8.727463827209803 8.46734949671795 9.933622824539034
Rh 11.273941264014093 12.617463926824268 11.735136682497135
Rh 13.879320180011593 9.240888467230732 11.03393633271429
Rh 11.786850915556629 10.169348896946644 12.212745938462556
