54
Energy = -326.63743579 eV
Rh 14.916846331213355 10.194894337848332 12.203727510935021
Rh 13.499601075468428 12.084821749704329 11.02977097035219
Rh 13.148334898553198 11.650882654835382 16.264652494885304
Rh 7.691669105482059 12.577441380872404 10.494193360980235
Rh 14.41700932351432 13.716553545047738 15.164779393783485
Rh 14.74937327782498 10.0698185932567 14.871727422440157
Rh 12.028764306964993 13.786625575745216 12.440364859317295
Rh 12.14552581302831 9.76448314911276 14.836873235392522
Rh 10.438074143698872 15.38499198395294 13.839821554191525
Rh 16.1419395289257 12.21171827529823 11.191900095044081
Rh 8.5413322584785 10.738714427806226 14.49241817956135
Rh 10.081813276927637 8.998624331671982 13.309224646653869
Rh 9.37920472711716 13.684514440923731 12.118387061953063
Rh 12.223231065286692 13.036988868409075 8.890388186593901
Rh 15.982583472025986 14.72578125727637 10.518530323111415
Rh 9.030947741354323 10.696056511016858 9.293108461955866
Rh 12.267253564928533 10.21516486038582 9.538226868313066
Rh 9.596070436950273 13.11095750705383 8.747355803027636
Rh 13.351216458789784 11.88810697524323 13.65929860030805
Rh 14.814527779032511 13.009010367278728 9.006704689505035
Rh 10.933931087447887 11.25056269513032 7.5397630983911395
Rh 10.847940649747343 11.938739686170093 10.8690806450721
Rh 9.171802610697606 13.327647049012954 14.849251619584347
Rh 7.331065276533775 12.559781179163473 13.128407366690402
Rh 13.783839066053382 8.403759190609716 10.722516323833691
Rh 14.68085611108459 14.05090162450606 12.616595533739904
Rh 15.995382842895927 12.065467327978519 13.794014476592578
Rh 13.087614607098896 15.555425433947873 14.052048424642944
Rh 8.787156871005802 10.709968779690408 11.90064243687109
Rh 14.453418598240676 16.475694117572885 12.012974976957436
Rh 7.8691938439544735 15.148822252943287 13.510940892399509
Rh 13.410826469806855 14.762290305516789 10.371360203392111
Rh 17.20993594996434 13.968574216145326 12.681707356491795
Rh 11.759751822572778 13.562101791594761 15.086564182478995
Rh 8.265251035859372 14.999449645029053 10.047678256343218
Rh 13.574170484348517 11.19350969145195 7.565696338770849
Rh 10.57696233247761 11.488756770496341 16.080416965230455
Rh 11.94561702278372 16.409845118261813 11.868012549507922
Rh 13.771623916034883 8.245575453095162 13.414575919390339
Rh 10.281273102127496 8.984356370715853 10.680612136195315
Rh 15.00111292932202 10.440044306291671 9.607979930005543
Rh 10.832784667231365 14.769534046280256 10.242570198966389
Rh 9.40581094820602 16.449036726840596 11.744088360898054
Rh 10.70811381681493 11.710699688252168 13.486174399297155
Rh 12.261780353330131 10.013364996894179 12.168440378875555
Rh 13.68862129609838 8.614926905116302 8.167313231009633
Rh 9.931169045584149 9.01232108418731 15.83273636108914
Rh 10.527888795524804 8.82134174519205 8.097720594203922
Rh 11.858710788398502 7.209309299993721 9.51761910378429
Rh 11.595261462847805 7.2960263734239055 14.525506997878663
Rh 11.732147868155165 7.365707248334211 12.04084675179707
Rh 12.18559916604398 9.376292154796742 6.298755692791911
Rh 6.36534253673129 14.490563850591494 11.619249824836581
Rh 15.696671841496213 11.902527001458067 16.335761970075975
