51
Energy = -305.16246824 eV
Rh 13.613607737625097 11.846074315957848 15.62970012735123
Rh 11.173016605793801 7.508848605790506 15.371342152925349
Rh 12.447562513822332 9.668591307834356 15.301324754844728
Rh 9.707706494753003 9.62199903242108 15.119780648012158
Rh 12.48179273171735 13.969672633591369 14.756242308362387
Rh 9.12783751998952 7.172204292385888 13.784090453405057
Rh 14.57742075407445 10.034809857961568 13.773200722864958
Rh 11.075685010304918 11.843595641107962 15.043351806317993
Rh 13.013985822607095 7.889372952321919 13.521671692369546
Rh 14.173060394020245 12.600781740709907 13.26207237637422
Rh 11.362186070495259 16.108921023380056 13.898984580248786
Rh 8.645922719332269 11.798413959971302 14.30038988622762
Rh 9.970498523026722 13.963587450348998 13.992587140637342
Rh 10.75602625992558 8.894875193857935 12.997775291434792
Rh 11.332670821025959 5.936756056101009 13.342012873219176
Rh 8.187558927407064 9.573064000769282 12.947193755700544
Rh 12.207461635387379 10.901445490646642 13.023730246325174
Rh 15.553610048187942 11.17424316008744 11.536966623940664
Rh 11.656343484838763 13.302016762545852 12.258177085100808
Rh 13.711434279712648 9.271474870125726 11.459965544438045
Rh 9.582498038193325 5.894499861074454 11.550295430763825
Rh 9.825900069496216 11.396735043301387 12.045808818148323
Rh 13.424090815002101 15.151977595434182 12.67083649247973
Rh 11.803569913243289 7.3309976828054015 11.225312348150036
Rh 9.159479490790739 13.842231100047627 11.529497003532093
Rh 9.254404417159835 8.222632483889516 11.012959664426228
Rh 14.728860619712975 10.095069715075459 9.244032745767324
Rh 15.381021808546091 13.967093428036156 11.517215847603179
Rh 13.228885568393355 11.783346610033854 10.82063849214856
Rh 9.057328014610633 16.04654390303877 12.720191806374102
Rh 7.356717515748321 11.97998409551939 12.057859552145993
Rh 7.346304222049181 9.757072750495531 10.515995295495483
Rh 10.972103820965788 12.653105111508292 9.855567005723387
Rh 11.22168054986813 15.66876194431862 11.371247775778574
Rh 12.436431119668763 10.91758079542313 8.499572762402442
Rh 11.261251591817336 9.943497907432402 10.568108006649009
Rh 7.102464595891342 13.905659240687452 10.105439429690534
Rh 12.737007341491218 8.349116192136282 9.133835685137544
Rh 13.212343219076402 14.282064933294386 10.203255189001199
Rh 14.511135056679773 11.78840616959228 7.133022597938697
Rh 15.073876691632343 12.702563569218679 9.357543781667271
Rh 8.48994514961072 11.80709438121228 9.687977993171673
Rh 9.015540446696265 15.907129850878928 10.044655782421234
Rh 10.139279288709945 11.749799300836074 7.577583141468929
Rh 9.046625567272695 13.905623501691702 8.459241549990296
Rh 12.544713371067242 13.356456357907637 7.793288965270579
Rh 9.431104515313924 9.580277698972214 8.90679629304886
Rh 11.198081740843266 15.171536557393228 8.879276651900573
Rh 12.22114446276822 11.376720533714078 5.969024294309598
Rh 11.117809774336214 9.256482560157426 7.128692444926757
Rh 13.707085712887471 9.317030968739813 6.914034323954038
