53
Energy = -317.20269995 eV
Rh 15.96527939453801 12.480180768300887 11.8015230975486
Rh 15.904036618831013 10.038569425305608 12.462012171961472
Rh 10.615901349257628 12.732583332261347 17.58853194721017
Rh 12.356309856789213 14.68904409962663 9.321781473780144
Rh 12.256502037578247 12.815481868732133 15.349698724932088
Rh 15.413333301785803 14.799417293755546 17.501868628599244
Rh 18.158230615076445 11.371027348456323 12.418892476543816
Rh 18.10704057338652 12.720645803256655 10.388648933084493
Rh 10.47245302146483 10.775877942005977 15.870205245986313
Rh 8.471420978156155 13.569656805479879 12.937424461676988
Rh 13.588629619322617 17.622465654016743 14.424024695990308
Rh 11.112318287395647 17.354471925811744 13.222138153666721
Rh 14.37393628920963 14.499385099647789 12.535093505059251
Rh 17.206517992281537 14.045125385224702 15.907160909495005
Rh 14.107870733341045 11.858745924530384 13.585755737652105
Rh 11.563971444428054 11.209828105402462 13.376089013610196
Rh 14.72267522067652 13.981700471472848 15.09568765527032
Rh 15.343814583444269 9.725339039146212 14.913127285199998
Rh 17.7673717218264 9.696259225821763 14.231568411101597
Rh 13.227770754717573 17.874165167645675 11.823251415269493
Rh 13.419482295715722 16.06368586810007 16.598230327596756
Rh 18.84375181217035 14.531467227581283 11.910717499030271
Rh 9.454872922647201 15.864640585049612 11.89751957317254
Rh 13.192451910597073 13.602832798541355 17.592824839670836
Rh 15.671467235938639 16.252842259106675 15.273178713704437
Rh 12.041537531475347 11.955490400346283 9.568642106084686
Rh 10.978635447984049 8.90028759765246 14.060531823296593
Rh 9.968941369332812 11.63591881923841 11.478335387717896
Rh 12.589630680087259 12.944487744880826 11.729049858794534
Rh 14.36726195951504 15.954759441071637 10.399270633465465
Rh 10.962681301155797 17.491606537002507 10.65898336270619
Rh 10.368421437164693 13.900221423903746 10.644392600092013
Rh 11.646525642404535 9.776213724863673 11.263604071965315
Rh 10.893368376626437 13.77653323375781 13.286781852868204
Rh 9.515037025677193 15.593543975976997 14.45605798570342
Rh 14.585860430309756 11.762895354477886 16.308553713872975
Rh 16.8203502650799 14.70331527228932 13.483977641821552
Rh 12.139159718787745 15.5564437293251 11.7051861663601
Rh 9.47543132492673 13.059225649644814 15.238857785688428
Rh 9.050323641780064 10.97864873040017 13.714454658864808
Rh 12.504000407424288 11.055330084826586 17.640607976997682
Rh 12.594626026674495 15.318991183125274 14.31398304166602
Rh 15.301670918358106 16.87935030312004 12.786403286047074
Rh 12.879299005946645 10.07425196901651 15.355613255932905
Rh 16.533101559360766 14.741139529787018 10.764275613602363
Rh 17.578682937221558 16.68771700453015 12.057356328652665
Rh 11.030015323245742 14.862930281782496 16.46764733466626
Rh 18.82846228814504 13.172844571821752 14.014511531877734
Rh 11.2857491610947 17.213800757935505 15.71792347517988
Rh 13.93859729343018 10.917682973819389 11.029876506386808
Rh 16.582191908544864 11.98122217369094 14.559150342709682
Rh 13.491211146017342 9.286498931470963 13.031854492408767
Rh 14.410104142258259 13.321455885191718 9.91541599888253
