53
Energy = -316.95374574 eV
Rh 10.477089092189985 11.235407457369059 16.172067921774495
Rh 11.17209491654393 7.252712815408312 13.042887810050946
Rh 8.753738304419938 7.603903137928058 13.84599308481305
Rh 10.634367172627497 9.319102195121424 14.373954857089762
Rh 8.308990051118997 10.506060770337275 15.075869001078065
Rh 12.563482176126264 11.084562415298652 14.601543504675167
Rh 12.784912995763893 9.293757235145662 12.803926773386934
Rh 11.507193767942121 13.392143226384741 15.306853112961116
Rh 14.304516589957323 11.439388234868295 12.659823593382963
Rh 8.859384486617701 5.9166971361169916 11.91458033375047
Rh 8.846989692562321 13.166118180847 15.269150092499618
Rh 14.047239099083988 13.1285939894469 14.727085680101935
Rh 10.874374014771671 5.9141797595068235 10.422708975936676
Rh 9.919262984558346 8.23768778805065 11.137593930809588
Rh 12.531232846177675 7.664121217155465 10.840828947628292
Rh 10.084374521774851 11.747240170975495 13.63896826152534
Rh 8.640314700618806 9.835474182537595 12.700486261105862
Rh 7.351543490809971 7.937489483592608 11.572357907933199
Rh 7.590514573744034 12.25570768830762 13.13959477878693
Rh 14.454365850671007 14.148612447811612 12.436382924432987
Rh 14.952097573751232 8.426481166095735 10.551973811474184
Rh 15.673733593999474 11.353477246054112 10.457958777477874
Rh 12.662686136636568 15.218804623295345 13.898546441447085
Rh 12.165098749465468 12.79555813460773 12.690589534266206
Rh 11.049985242875081 10.632425436026107 11.522773428674492
Rh 8.63806586007568 6.947396248343095 9.37579527224951
Rh 13.299716453485232 10.239053866918583 10.357383121884393
Rh 10.33003399046816 14.468215404604583 13.32604681666346
Rh 8.064726302882411 9.413401094132132 9.589846453387079
Rh 13.61886904699383 12.840880618995516 10.5248683931627
Rh 12.203713352104417 14.992671852604811 11.312758262758905
Rh 6.515598912725585 10.510365256939382 11.433294397284486
Rh 11.029809337377495 9.332343120961477 9.105325558344486
Rh 15.275717552582172 9.898071270724683 8.493336071847315
Rh 13.33436148469217 8.24660694954642 8.451465913239632
Rh 8.777006230688128 11.599691763069156 10.813301939896924
Rh 10.966209849200247 6.977075504561755 8.164074429441143
Rh 11.639987655723125 8.753711643115398 6.563846223255936
Rh 10.828934705938469 12.999225978905866 10.30301719849754
Rh 8.76685079043154 14.123424545175336 11.592202104274614
Rh 12.038138414353872 11.638304671356654 8.576480978403996
Rh 9.161063778070409 8.72186516191391 7.422382474166126
Rh 6.524588097774568 13.139763439968222 10.969230215807237
Rh 14.576558703299414 12.368584968789337 8.226469440102623
Rh 6.824440646734404 11.537338032092114 8.987223937922256
Rh 12.620516896166832 14.290089007578178 8.730723451133095
Rh 10.265105295920817 15.344103473493872 9.571729553659404
Rh 13.433628946819706 10.469879170059079 6.84887593506071
Rh 9.320751155856717 11.246287081244576 8.226799499112904
Rh 8.404917343527405 13.562960861108413 9.11484861690013
Rh 10.867416770206036 11.161589779002776 6.2741469885015695
Rh 12.790526008561756 12.957350247027884 6.432505010799334
Rh 10.454082531286138 13.545174620843252 7.594867438722139
