51
Energy = -304.30369937 eV
Rh 15.69024178437057 10.342739626630646 10.482680830141422
Rh 15.8392836172865 13.000678883604735 10.35527896378046
Rh 15.441048084457476 10.864053788460362 12.992133754467137
Rh 14.174480463851713 12.94796822671419 12.23106388218133
Rh 14.214230655441956 14.044447924234023 8.705790383681691
Rh 13.537193315214068 11.957862259605427 14.453469556747088
Rh 15.234359415811372 11.626998892723964 8.078968412679487
Rh 14.331706617783444 15.117890709016432 11.064947320599659
Rh 13.855599142096368 9.442492029429662 14.539110602271778
Rh 14.729312035613027 8.461428567867049 12.127510186916918
Rh 13.654083932650959 11.691807208014922 9.965076789741934
Rh 13.435245765042081 9.636139185246952 7.621529553688116
Rh 12.174256411406597 13.780826240203407 10.357301654787417
Rh 11.925961178322165 14.459107427705739 7.678701860489397
Rh 12.677490394606822 14.86990169662485 13.171037091064246
Rh 11.603698686851729 13.448940774239336 15.198580636716189
Rh 11.529103141058375 12.639507772741066 12.729567946673873
Rh 12.704318521461285 16.183431574436877 9.41798865730778
Rh 11.48723705867511 10.720858237400073 15.269070464747154
Rh 12.369944181478148 8.133343399957434 13.09102513443572
Rh 12.686082307490715 12.036870867051842 7.689116940949253
Rh 13.052106692281296 10.510445919488415 12.22171526034
Rh 13.518313113429322 9.082172992407164 9.994945390352521
Rh 12.663273790670532 6.824578751281031 10.97510318713796
Rh 11.846496162722799 7.731552710861715 8.552688147311683
Rh 11.003142499378928 10.168895598100173 8.1371406171226
Rh 11.119413281544164 11.313913506841196 10.580393083783576
Rh 10.628698489588587 10.177216931060673 12.924594768831946
Rh 10.07048438475876 14.664356793405688 13.520356355345674
Rh 10.280303829925215 12.784962814928283 8.538866030922593
Rh 10.976310438534247 8.72875545597606 10.778320414952935
Rh 10.076269446104492 15.341093852911676 9.145463627898069
Rh 10.128580412188114 7.087874697077699 12.527302712003603
Rh 8.995176279669916 10.085934456571366 9.799290257990803
Rh 11.063376284570058 15.807924775835387 11.445432104844873
Rh 9.625163977910315 13.67710812374819 11.055279533192428
Rh 10.554055126166459 8.341168154849699 14.812992269539729
Rh 10.142113027175842 6.415423136056919 10.005977694925033
Rh 9.509992900343997 12.203844448309239 14.373728376369968
Rh 8.654954159287175 10.967730227224354 7.5236642494587676
Rh 8.909475239681468 10.158936486646517 15.662235804598545
Rh 9.287223361686026 8.140182107938314 8.290194667916527
Rh 8.630482002809787 11.376936847171903 11.911134943902006
Rh 8.503696023499618 8.891810465115356 13.430632535239559
Rh 7.946193222215091 12.395363870354863 9.534923844091875
Rh 8.28349645508747 7.999682584488132 10.928931537895465
Rh 7.827414914681102 13.547147460551932 12.890307027112645
Rh 6.567888146939665 10.240248230727422 9.446669781425864
Rh 7.152345218006987 11.136187904088912 13.940673835240663
Rh 6.609163436769169 9.624270585156951 11.896288245086705
Rh 6.180351075420092 12.054854402710516 11.464229557157982
