55
Energy = -328.05112446 eV
Rh 13.45930076126268 14.10412636764628 8.651244543563164
Rh 14.381422171045136 12.079121334114358 9.903993680228886
Rh 15.062473649784478 16.263480160508134 8.764717334654476
Rh 13.266233230655802 15.873335317117878 10.41378971738299
Rh 15.97461892498134 13.987868931342243 8.977817297659316
Rh 14.306854799118772 10.378274284914422 11.635483879458945
Rh 12.100638598197976 11.226708969570021 12.421304887626661
Rh 12.449589998357988 13.392656514011517 11.008589208108688
Rh 11.228172647052782 15.710937609852289 12.038257473361956
Rh 14.91763194619447 14.090394937023614 11.338415515772596
Rh 17.430242401239315 14.220221911474757 10.880386711834538
Rh 15.741488496463276 16.456000713311195 11.200811647967619
Rh 16.449218624086818 11.995821670977248 11.769827605911308
Rh 13.159107462508297 14.609092813213971 13.252259082307548
Rh 13.937412200497695 16.17998099074976 15.173084761163127
Rh 18.825661494779247 12.58307845440626 12.052094081120641
Rh 10.772880116518463 13.372950866008837 13.067537893702182
Rh 17.77184193790914 15.927002095239011 12.688495458040938
Rh 14.244919264408503 12.318588222275183 13.24429448156357
Rh 13.471161011723213 17.06389362878062 12.581497898083471
Rh 14.511180862469317 10.258381425528226 14.641239365097286
Rh 11.564758590431973 17.0119244770862 14.278205083582638
Rh 15.794398559735631 17.289035334021953 13.643223073770478
Rh 15.804959885215398 14.617805631411281 13.827391866375992
Rh 16.292881092390775 9.732881447916672 12.979376169027615
Rh 14.317996911170011 19.182863674498954 13.644419604535019
Rh 9.98503632335249 11.143936613843943 14.013396822535038
Rh 9.493994041361786 15.577267452253043 14.20125984814918
Rh 18.344931103916096 13.761746753356512 14.050800974113077
Rh 11.605653244600658 14.59384222244833 15.308949149686281
Rh 14.112369057533243 13.596249436829709 15.49309952137519
Rh 18.6889954375844 16.087633340234856 14.982210142782979
Rh 13.07200093562522 18.459035275715316 15.580541257813834
Rh 20.535840626487335 16.209286568813095 16.74303103292417
Rh 16.365281590232875 16.24802239406754 15.913445475085847
Rh 19.19041375643963 14.064358089825264 16.47784891081617
Rh 12.182305461036092 11.977484384778789 14.869934617686189
Rh 15.187547877386468 11.69410207059799 16.693323361334766
Rh 12.974655264517692 10.34822197911542 16.606038792809425
Rh 8.272613277919303 15.07869934859332 16.466875219912495
Rh 9.264917558611918 13.190908252218776 15.225385680762507
Rh 14.491120456305703 17.091541909533166 17.550807750464124
Rh 12.698058368310269 15.365599320056937 17.52019752464815
Rh 16.531389556809614 11.919709890003244 14.345219558362126
Rh 18.959941359503308 15.397778841491794 18.542410912505225
Rh 10.368269385889134 16.475284974716136 16.53523973876772
Rh 18.236459862811902 17.339301810001047 17.173338199294236
Rh 12.044106064490622 17.843470010181427 17.713676971781243
Rh 16.745944739597263 13.706542200223394 16.13880620898087
Rh 12.647284033326608 12.760546327770575 17.438814625884948
Rh 10.507251908793226 11.517022187970193 16.693588891879248
Rh 14.853409556159422 14.004131863709931 17.92157085171617
Rh 10.405851543704367 14.01889734717388 17.448164907873092
Rh 16.46844845685608 15.880472817309373 18.466935629673344
Rh 17.259950830230903 13.453565851758619 18.538416416073034
