54
Energy = -325.94514089 eV
Rh 12.923429066967252 12.92428213 14.289281248280801
Rh 12.929571858693022 12.92428213 16.926471707598598
Rh 10.638762742090805 12.92428213 15.628783186892864
Rh 10.658723202607863 12.92428213 12.92428213
Rh 8.427307397302714 12.92428213 14.286712381829936
Rh 16.588146311680312 12.92428213 14.298952543035202
Rh 6.2724175333351 12.92428213 12.92428213
Rh 9.341353260271108 17.14922150694093 12.92428213
Rh 12.923429066967252 12.92428213 11.559283011719202
Rh 12.929571858693022 12.92428213 8.9220925524014
Rh 12.217721157789525 10.749879204021504 15.627384064991363
Rh 14.780508487979782 11.58113446937302 15.620950410005364
Rh 14.780508487979782 14.26742979062698 15.620950410005364
Rh 12.217721157789525 15.098685055978493 15.627384064991363
Rh 10.638762742090805 12.92428213 10.21978107310713
Rh 12.217721157789525 15.098685055978493 10.221180195008642
Rh 14.780508487979782 14.26742979062698 10.227613849994636
Rh 14.780508487979782 11.58113446937302 10.227613849994636
Rh 12.217721157789525 10.749879204021504 10.221180195008642
Rh 12.220114636671587 10.769885611574672 12.92428213
Rh 14.757964992100053 11.592349731757034 12.92428213
Rh 14.757964992100053 14.25621452824296 12.92428213
Rh 12.220114636671587 15.078678648425333 12.92428213
Rh 11.53429995151901 8.63757133606092 14.282854624795043
Rh 16.570280987818855 10.268464593914542 14.274955313235997
Rh 16.570280987818855 15.580099666085461 14.274955313235997
Rh 11.53429995151901 17.210992923939084 14.282854624795043
Rh 8.427307397302714 12.92428213 11.56185187817006
Rh 11.53429995151901 17.210992923939084 11.565709635204959
Rh 16.570280987818855 15.580099666085461 11.573608946764
Rh 16.570280987818855 10.268464593914542 11.573608946764
Rh 11.53429995151901 8.63757133606092 11.565709635204959
Rh 14.0514557343207 16.401176176492136 14.29957000992914
Rh 9.966029004354015 15.077281976071525 14.304817601064698
Rh 9.966029004354015 10.77128228392847 14.304817601064698
Rh 14.0514557343207 9.447388083507862 14.29957000992914
Rh 16.588146311680312 12.92428213 11.549611716964797
Rh 14.0514557343207 9.447388083507862 11.548994250070859
Rh 9.966029004354015 10.77128228392847 11.543746658935309
Rh 9.966029004354015 15.077281976071525 11.543746658935309
Rh 14.0514557343207 16.401176176492136 11.548994250070859
Rh 10.848940564796134 6.593766392592527 12.92428213
Rh 18.29876989372287 8.989619534182903 12.92428213
Rh 18.29876989372287 16.858944725817096 12.92428213
Rh 10.848940564796134 19.254797867407483 12.92428213
Rh 7.802994234241851 10.825083370600574 12.92428213
Rh 13.333681379286975 7.3931285944683145 12.92428213
Rh 18.313502162121498 11.60701011258031 12.92428213
Rh 15.824917994663759 17.65359430036783 12.92428213
Rh 9.341353260271108 8.699342753059074 12.92428213
Rh 7.802994234241851 15.023480889399426 12.92428213
Rh 13.333681379286975 18.45543566553169 12.92428213
Rh 18.313502162121498 14.241554147419693 12.92428213
Rh 15.824917994663759 8.194969959632166 12.92428213
