50
Energy = -299.9325434 eV
Rh 12.3880151556483 13.483112295183165 5.4848729424407905
Rh 10.190120546439026 12.849135287809421 6.470804100636281
Rh 12.041490071761636 11.088263206999205 6.682479242938151
Rh 13.999661809061765 10.166520177171599 8.056245390718846
Rh 9.57596197245125 10.56173974440858 7.532710096687298
Rh 12.537664785306266 14.968223288258532 7.518275863127436
Rh 13.918114998602382 12.692247278185496 7.4114232691911575
Rh 11.57658627171954 9.385279462114715 8.560426264871428
Rh 8.450947564080822 12.757854885332005 8.319489587015454
Rh 9.973998655068835 14.872115451518969 8.04691185294865
Rh 11.667400806381748 12.832814929427853 8.562675345092968
Rh 15.567394643801908 9.142264849362988 9.73268953707913
Rh 13.479627320887902 7.774304114495156 8.863350297582421
Rh 7.469088369966701 10.484275237196046 9.090115749804664
Rh 9.328721404843135 8.774909308659392 9.59308885258215
Rh 13.797946435334966 14.034144598392823 9.638738423591368
Rh 12.795270842952332 10.96714235426744 10.12898065828585
Rh 10.038899643751378 11.41788077143139 9.897730339264987
Rh 11.627157333945211 15.40431440819118 9.983316774728937
Rh 15.19475830059328 11.818095750045458 9.530519317423385
Rh 11.395523877856235 7.411955602345067 10.408093640577299
Rh 9.48917999466925 14.062086320895933 10.357339021644071
Rh 13.480728381759976 8.741943869120949 11.182034298529237
Rh 11.765599966207123 13.098030676354353 11.18374941149832
Rh 7.631220396101153 12.329935374160085 10.811527973986873
Rh 8.205462937119265 9.960017432577962 11.5621425418031
Rh 15.258462233113937 10.461837589608887 11.846937237904086
Rh 14.345713847829712 12.832859737844593 11.788541589438756
Rh 9.365549457336673 7.673468595804687 12.062429323206066
Rh 8.139917052592011 14.16626384298705 12.44517258649171
Rh 13.101831057723798 15.112148048303293 12.048052330892174
Rh 10.909818998266198 9.667917950507771 11.572879429141413
Rh 12.577636767549528 11.225880510171871 12.844017608242588
Rh 9.775081691334284 11.925240118323854 12.459038291827662
Rh 7.501652435419536 11.812489418980226 13.43462759632994
Rh 11.89746441717944 7.757493529979078 13.003658784369847
Rh 8.123924575026331 9.262260348216918 13.940577439876765
Rh 13.936994738260458 9.17608905764995 13.672777964659007
Rh 9.939421316056254 7.503742332616444 14.602944407021072
Rh 10.670915750434629 14.378634031395245 13.11243184769955
Rh 14.94124022274622 11.6388689025955 14.042079926057845
Rh 10.571051577778993 9.93865862653582 14.143507930420682
Rh 13.015750293905691 13.466646605599111 14.037101471404064
Rh 8.70798459629139 13.658060902234713 14.83937434571116
Rh 12.250414638866177 8.44066985920664 15.484401029917315
Rh 12.913274313784372 10.931809979609863 15.375913246402394
Rh 8.716318765289257 11.181789843652258 15.57774819640357
Rh 10.871926548983607 12.423262511969758 14.842734952394583
Rh 8.966970783402848 8.80618609250683 16.46162375173157
Rh 10.878750925801855 10.44372438107904 16.716307409691318
