51
Energy = -305.8439577 eV
Rh 10.669974344339519 11.338620397217651 6.19200153507916
Rh 12.992383462260397 11.920996655772576 5.17622256315129
Rh 11.92443273639709 13.576288241047445 6.741922672041098
Rh 12.903512454244124 9.956098235748911 6.720645532645273
Rh 8.596049659824216 10.693109784531122 7.557146413993574
Rh 10.646725547547465 9.087316932408495 7.649481615779546
Rh 9.57254465086969 13.14790856549646 7.80975915491243
Rh 12.718742752925717 7.562445195055093 7.816739997949743
Rh 14.064824462134418 12.246325410064136 7.491949434484902
Rh 8.365600309711306 8.443671559163372 8.88509609686687
Rh 11.818816219246948 11.614183560068058 8.455563418147086
Rh 12.752320899831592 13.905867813501505 9.192918349419896
Rh 6.448510862151855 10.149458629669173 8.96922172009987
Rh 10.819023770182563 15.33355315254179 8.30692839967704
Rh 14.907683165973083 9.948923982058462 8.277543713308026
Rh 10.63562598722324 7.2231005188901465 9.372464317378995
Rh 7.84133353875353 12.268369724680944 9.495841712661457
Rh 9.871062183583941 10.360008941400594 9.752959330292429
Rh 12.679408028018024 9.428942843660296 9.442641437559343
Rh 8.754874056578991 14.691888595815405 9.840130185253415
Rh 10.333977844947634 12.856366534441838 10.226568383075495
Rh 13.058522264581429 7.037919243180636 10.433260639242917
Rh 14.134948997920642 11.788000231271619 10.017098136190793
Rh 6.340928045596835 8.202393952885869 10.652043777016758
Rh 11.29744967550922 15.178574057606768 10.839012398582433
Rh 8.52078626830849 6.333244371986478 10.587255908111644
Rh 13.062311588853674 6.015463698456423 12.753022245139515
Rh 7.135703141916833 10.686039128678248 11.346869070996425
Rh 9.625352042087085 10.947322663221069 12.277691043039415
Rh 13.06971093990893 13.40150038844798 11.756344492468143
Rh 6.4881739583783204 6.27887144985868 12.224822496362275
Rh 9.226169711183214 15.37870136651065 12.35953870365937
Rh 14.78394905441212 9.269032579194654 10.742577248265471
Rh 8.650528048395094 8.672179131857023 11.448279156055019
Rh 11.944548001879443 11.14798696410354 11.195919037716205
Rh 8.137026692624415 13.061408479114226 11.921828066415916
Rh 10.811134540166721 6.100795855672519 11.712683889819145
Rh 11.192065348218565 8.675447545764984 11.441899420236496
Rh 12.063574979637105 15.268881993706854 13.226749458905816
Rh 14.014529171388057 10.96810277202797 12.537445812802206
Rh 13.452164759298274 8.45929424898143 12.72791279964827
Rh 8.763875942893073 6.840766522484479 13.159355879598268
Rh 8.586513078816594 13.725783237018952 14.304439172482551
Rh 10.629677561800412 13.318595775816336 12.84474262224921
Rh 6.832358499053507 8.705773067365765 13.228738120723843
Rh 9.981661525233735 11.634751984453523 14.755271797839736
Rh 12.591320969972646 12.493478568686413 14.15489569736057
Rh 7.558175815863951 11.241934733756686 13.824060284451527
Rh 11.752606219016698 10.122069858606718 13.696821600796653
Rh 11.185500189015617 7.5379899379745 13.795047293165
Rh 9.249208099732249 9.21215298648282 14.118529815289952
