54
Energy = -318.63252691 eV
Rh 14.207916891425866 15.659534872621874 9.438028614498293
Rh 14.665036418820824 10.473423717317502 12.140560795101237
Rh 10.74594754764478 15.017881233002091 7.831413803167625
Rh 14.070289649590482 14.953511261424385 13.168522536556948
Rh 10.115487051913949 8.80900317814263 11.971273788759559
Rh 15.55169880643394 14.547318835229039 15.250484012785114
Rh 11.196005199962679 9.708151545377666 9.661572042722305
Rh 8.509909590242122 12.82985402351209 11.916678031324954
Rh 13.175832065711335 17.394922967360735 13.356512834062176
Rh 8.800145952091356 10.4901171407743 10.532891019762436
Rh 8.55618830204205 10.571938519258524 13.036858060770282
Rh 10.610965503759626 14.036062627188857 15.921663521074109
Rh 16.05491324465123 13.658565521348402 17.59405573394899
Rh 14.525917670122098 13.288297260631404 8.508117521903893
Rh 15.544838125046436 16.832286997982074 14.171062702947355
Rh 10.325726714056929 16.149951316105337 9.95141136964839
Rh 16.724676679364563 12.292339393381909 15.518027763399083
Rh 10.443347234491055 12.320733731209584 13.703261394047418
Rh 12.134432477778105 10.240757191948553 11.922026420778728
Rh 15.10292032276776 12.623992507704598 13.45848300535333
Rh 14.414690921987798 12.113775391101852 16.73731306841316
Rh 13.065575896763294 14.278165854714812 17.31454902827348
Rh 15.719972060799378 11.528948715722867 10.004723773913707
Rh 12.511415636812506 8.368200590308025 13.613395547083709
Rh 12.223925211861168 14.02751966942692 9.690268553402097
Rh 11.085959999973035 13.0259155445599 18.161602350202987
Rh 14.997990606501652 16.603439020956298 11.573320556808056
Rh 13.021851783931604 13.367956308404308 14.982560576256196
Rh 12.371348804160718 7.833436213489646 10.99885314583994
Rh 10.584261801737814 9.827194785563464 14.335519210164946
Rh 9.352076959634614 13.777563330220897 9.538811572445473
Rh 13.088633983436797 11.660348732540719 9.986035687962932
Rh 16.93025112740417 9.598076220315363 13.023784316633993
Rh 12.500790854081457 16.1657277498387 11.29120338878192
Rh 13.958096168099337 9.318410483263497 9.854155411057176
Rh 8.319137572905255 15.291323137811693 11.423259399546746
Rh 17.835888378402455 14.48655851895248 16.197322322512637
Rh 12.683968416992778 11.039775965516345 17.992943152448493
Rh 14.776972971503627 13.703465726942815 11.041266796249925
Rh 10.256440506965543 16.834027898410433 12.440947800678222
Rh 15.401015649525394 10.292492937962038 14.697709952769717
Rh 13.121890223097877 15.010484473423707 7.304491086119553
Rh 12.437537472776825 9.28677840196855 16.078838002605913
Rh 13.54399307672931 16.03686483136037 15.616313565741608
Rh 12.955261266724037 10.89199359641457 14.266415491837154
Rh 10.695528262855081 14.365520347072527 11.810133792111166
Rh 10.703910315816689 12.039116249374498 10.804503438647005
Rh 12.688669215011892 12.865243797623158 12.377494358377968
Rh 16.988930070518485 11.828725656256571 12.084698398315384
Rh 11.127719547612934 11.568357573471902 16.102711298124994
Rh 14.427771888647007 10.821356166399164 7.931394435934673
Rh 14.74726887655041 9.62757949645719 16.93587635770514
Rh 11.563843902052328 15.434634005109773 14.091702070015016
Rh 9.159204409619193 14.596223900601062 13.874309974707016
