51
Energy = -306.74757713 eV
Rh 11.305410839073863 10.748442334521211 4.95634121471226
Rh 9.50311523223769 8.940247468100498 5.53680673789697
Rh 9.066024902358553 11.57304463641741 5.944428798961408
Rh 7.626764332441097 7.214616557910182 6.258134757551306
Rh 7.159786448199335 9.753022624876499 6.619961006292413
Rh 12.07721877949573 8.359984614371736 6.020500228535424
Rh 11.344342758033527 12.750332436551739 6.7400555718090045
Rh 10.165646079146446 6.573182358550034 6.762033704462796
Rh 9.003253517652645 13.5408195198075 7.8442265041252535
Rh 13.23211099435638 10.769542864502334 6.852829743767517
Rh 10.82603808264863 10.239867133378292 7.374284801761063
Rh 6.327102450037807 7.964512783819318 8.414337481079642
Rh 8.91673230963247 8.472433275921013 8.045807844929463
Rh 12.697517365361097 6.121394566342729 7.30379887130536
Rh 8.549650982723353 11.058463072299594 8.463094084989661
Rh 5.9970735280548055 10.588548510009714 8.907675301617223
Rh 8.281579374824986 5.997279854852262 8.59059529024759
Rh 11.25166755163792 14.579728692541476 8.669253934046472
Rh 6.835131713277003 12.319082799261638 7.0947024619333545
Rh 11.486425590127082 7.914002028437611 8.596536026127431
Rh 13.845609102076835 8.445447743121031 7.891017814581833
Rh 13.1872992376083 12.721892612665307 8.59049640916461
Rh 11.950016823666678 13.612106458025151 11.07975928910428
Rh 10.804111441655314 5.405259193000914 9.11626238074644
Rh 12.778522363445154 10.288948547619317 9.372672092599814
Rh 10.80868506743722 12.191231504777578 9.255636323979928
Rh 10.280144148027057 9.784919864763511 9.848507259587473
Rh 9.63328826116596 7.365129473630652 10.441874710387369
Rh 7.0906850449613295 12.902008170635415 9.671792024812412
Rh 7.799276882093009 9.29459383414396 10.282543100901261
Rh 6.999472975160221 6.836346426184522 10.638215590057138
Rh 8.834904062870235 5.055194018493332 11.053239428817081
Rh 12.091643917293952 8.497295874243896 11.215005128357511
Rh 9.388725800953246 14.075689455482676 10.428217226090869
Rh 5.325630351564057 8.82997146713073 10.701379664696507
Rh 12.402761052183438 12.66740770138222 13.41952964810421
Rh 11.323988266994403 6.020311931316711 11.741883042482446
Rh 8.890751493365439 11.580586458243287 11.02650364841909
Rh 11.617949422185806 11.101972752104171 11.628404024642126
Rh 13.071162616732522 6.447412153024895 9.940595452310907
Rh 6.354285519862011 11.08950654727588 11.543386473138344
Rh 9.622144415612869 9.327383054349012 12.24585796396796
Rh 9.18928840144231 6.829840832150251 13.02283508955589
Rh 6.860630690262335 6.099935926879769 12.952495570630848
Rh 7.078556261768013 8.716734609360927 12.750705168628453
Rh 7.545238208030692 13.333691277047295 12.212970810621822
Rh 10.031576537681202 12.984669000066962 12.833769457233673
Rh 11.342851342264055 8.042437169140495 13.614247072225025
Rh 8.15385284368365 11.066306031720675 13.500847605099436
Rh 10.785054475287104 10.746483923897154 14.06463513434078
Rh 8.978183917558596 8.879621631862925 14.638194804775548
