52
Energy = -309.7746662 eV
Rh 13.95961781911932 14.625131941146826 9.055951091677755
Rh 12.145577839434017 16.328672883217628 9.845308265394278
Rh 12.03703585728083 15.333753278337827 7.41197138467893
Rh 15.019937911534976 12.282710006750042 8.616887074644124
Rh 13.355315341336725 13.048778316246459 10.96360752833035
Rh 11.14669301766674 15.037103970809483 11.80808995647977
Rh 12.964569567537822 12.885944573404617 7.278912684314284
Rh 13.70063330785589 15.41126027051897 11.65429643444893
Rh 9.47387506047416 15.605533147467119 7.411906255811453
Rh 9.605216373792922 15.439222239324643 9.82423173253617
Rh 14.884678908577754 12.44104517412495 13.00773484743288
Rh 10.818210634145064 12.433644704235919 11.607659864782862
Rh 8.727859312035148 11.498213700514194 6.855141177807629
Rh 8.341252715442144 13.438949457318639 8.77871768263199
Rh 9.798394526106586 13.639612199712134 13.781759517607192
Rh 13.492931956057193 8.998366981712106 10.654942569303586
Rh 11.28748169897301 10.847868406748228 6.92754207361913
Rh 13.828426732765166 10.464051882817351 7.166777967235835
Rh 12.833969591703676 10.972779900514988 12.369212543758083
Rh 8.693930323826407 13.844247428671354 11.508624680198125
Rh 7.611792899209305 10.771710353346075 9.083783023570584
Rh 8.010003321083932 8.39512789377487 14.502807208309997
Rh 10.42265564426287 13.359565775624827 7.09666804526717
Rh 9.397017113415252 12.347267428302146 16.001380455625494
Rh 9.728894480440589 9.767867043354476 15.673251636566272
Rh 9.49008198439417 9.29478193312142 7.956525868765149
Rh 11.665908030372897 13.471200367499051 15.727966915850903
Rh 8.231082089066401 11.305436393500782 13.9728417214096
Rh 12.532119659819072 13.504877776672013 13.387147015465924
Rh 7.230688793942789 9.296856286647815 12.179658824949223
Rh 11.450315731299986 13.841727781369674 9.418917675671693
Rh 11.600859567181653 11.104065515639146 16.76365266282894
Rh 8.828613327762632 8.720416045575856 10.268533456289028
Rh 11.003528263223167 11.39898743183586 14.137213668261218
Rh 10.06346365105228 11.650225583755844 9.109544134884056
Rh 8.473496154315736 11.388002676182955 11.34182216574577
Rh 9.650862673700662 9.572463590440549 12.86325656537923
Rh 11.005344133992224 9.883341004491315 10.668232726147796
Rh 13.470652644825648 11.605041774776643 14.940801527178362
Rh 9.070446908267444 7.214618849908945 12.289313112784157
Rh 12.718431972026108 11.203495422537848 9.318227999401415
Rh 11.928889854659333 8.551831979383131 12.706728064762725
Rh 11.163623533023657 7.352790841359512 10.544004418779942
Rh 15.793363321608933 13.59087455695838 10.700914810096778
Rh 11.961478929892225 8.849488292491904 8.496216274305555
Rh 12.307311753623901 9.315489864658412 15.188756597420879
Rh 14.355849819235264 9.147176887641276 13.314582955524138
Rh 10.421709283328104 7.538751829541444 14.563417305747711
Rh 13.650094715192225 6.821620972062256 11.945946570837785
Rh 15.01204238135315 11.037638523342217 10.845445813567519
Rh 11.319800834180004 5.994910978005031 12.705184916556236
Rh 12.991651115626318 7.028830526073815 14.47503098117096
