53
Energy = -317.4855123 eV
Rh 14.549360680143822 11.439174703125632 14.615868821187924
Rh 14.280291898409866 14.156886379436056 12.257745019984101
Rh 13.286014822989209 13.84839305287817 14.859199424690953
Rh 12.19153117041861 11.416751158777428 15.802835105108022
Rh 14.786290173897356 11.6700369107481 12.143638734313134
Rh 15.168307830851765 13.038677405041152 10.031702843151647
Rh 14.554974482432089 9.110584869982976 12.257555936291382
Rh 13.428802262077225 16.22163020996554 13.317383282837085
Rh 12.747409382002445 9.413317863469496 14.085015174697267
Rh 12.708220049017644 12.711034791258502 10.67744547274085
Rh 15.316548722256808 10.432496172124896 10.035269875667924
Rh 11.351691769499745 15.686267715323446 14.861903370066864
Rh 12.550854097634655 12.048957061451675 13.296118032471556
Rh 10.661170284176336 13.23359882364882 14.84970822056071
Rh 10.761718980069846 9.246373928779537 15.820375729962699
Rh 9.412109165151408 11.444751633765595 16.038772905893463
Rh 12.394201455036704 7.703345354757525 12.083632682078928
Rh 10.445952247136272 10.698592681607309 13.736943557674499
Rh 15.619237978393864 11.55390628562047 7.75315905432998
Rh 13.05304917376764 10.449444329692323 9.13775947189938
Rh 13.798208074545927 8.159921861259882 9.955925864514759
Rh 12.24748131929393 10.183619808575815 11.595918411493125
Rh 10.981511011821691 16.734959551741788 12.460696052774164
Rh 11.737495002982152 14.34737954980461 12.704973938528669
Rh 10.059300728729246 14.922427428458088 10.861920480299739
Rh 14.89023097310428 9.119283947406323 7.838429448116185
Rh 13.437621802889506 12.673447377288005 8.132600098385092
Rh 10.354564539913 8.152821930152529 13.514728214169182
Rh 11.838068073001992 6.500261461814904 9.677504721043276
Rh 12.64152577628962 15.53295631508389 10.666823265110164
Rh 13.131812608041814 10.563809138119447 6.603304266592504
Rh 9.311831032505104 14.859787849731497 13.448755184954914
Rh 10.672476628437602 11.597843881802564 9.341479841349585
Rh 9.556448695083425 9.706421949476828 11.559600318023877
Rh 10.338841536212389 12.361771152316951 11.756385581185288
Rh 12.468515540445134 8.084014646311209 7.666414456367466
Rh 8.380410326168953 9.590417729867116 14.580615340224456
Rh 8.418257297290815 12.336887344261836 13.610234101033647
Rh 9.944635273676338 7.081863116334408 11.24663391538111
Rh 11.065010377940503 8.913021530573783 9.67613445375163
Rh 11.405877134990961 14.077204884983411 8.864676426204937
Rh 11.304393355893744 12.432769625531998 6.799164719752651
Rh 7.944790035832683 11.626354478453495 11.01922108341967
Rh 7.9838991861094675 7.5095161495708656 12.95121741268084
Rh 9.467350750707048 7.463195421005282 8.588297642546179
Rh 10.732535892786018 9.96667698436561 7.34734438785299
Rh 7.776628442729939 14.029962125355963 11.622662164796743
Rh 7.137452992569576 9.804202131605619 12.382365243281876
Rh 8.848039325486676 13.457863798082789 9.297897284269013
Rh 7.701930589459506 8.04784295961645 10.416177153097099
Rh 8.939214431798598 11.807227816300852 7.387236096208162
Rh 8.5512415883981 9.935606791810612 9.076886115184355
Rh 6.86633284123748 11.920827126680589 8.804543508246283
