54
Energy = -315.26345178 eV
Rh 14.095972680160143 11.875498121152434 13.005405578322367
Rh 13.325378152705726 12.300622037365379 10.535382298023864
Rh 12.654121847662807 14.153895347742024 12.387380480245554
Rh 15.78299839935088 12.705735664642194 9.645894779755146
Rh 12.347365643485986 17.12562724865813 12.725121629506415
Rh 10.00829080263043 9.448116523008608 16.775053691070056
Rh 16.882547663426156 17.44201240249017 16.051229934510296
Rh 12.890947550588852 11.944932699941942 17.38819761940985
Rh 17.187810402848474 13.287942083032966 17.952623537284325
Rh 10.398942056286069 9.230343346988182 12.275346744412053
Rh 14.098128811962374 18.962403221427934 12.592703264205442
Rh 15.34875852057223 12.01380744620489 17.002915431297957
Rh 12.066815530415184 16.192626417147714 16.427762766153748
Rh 13.72000173509099 15.599826355733699 14.522795898235586
Rh 17.69429396083353 13.015824162967455 15.583037278967302
Rh 12.88887878309256 10.057917880452239 11.490820411500433
Rh 16.313014528499473 15.84958373169674 14.159470742696275
Rh 11.150209150058936 15.551760045877735 14.170874126760467
Rh 15.217623637404127 13.468117492476551 14.949011290232127
Rh 11.76563047350719 10.922446002713537 13.620251367352628
Rh 8.102114633443977 15.315124392898802 11.283298602059508
Rh 18.63811837655361 11.733330345690227 13.720173190474434
Rh 14.453411608383469 16.76151335254029 16.800827597394523
Rh 14.793605233527567 9.413482330458088 13.289849550147672
Rh 17.762704554454928 14.16880276440476 13.260606269131348
Rh 12.270212371630976 7.736987826020625 11.882287586320238
Rh 16.3823896378643 15.13336171756818 16.655453552071403
Rh 10.823613957090673 11.50530654992195 15.946307861899998
Rh 13.823486839272938 13.406965261132397 8.21281984481015
Rh 9.577468554834157 15.528140015366928 16.165233372491187
Rh 14.714285949655379 16.473447443612567 12.11650645408475
Rh 7.883507364090488 13.3756705238503 12.902948483738804
Rh 12.566406703294172 13.13796176335832 14.772919025572095
Rh 15.291617395720479 10.585720473310348 10.889882741602019
Rh 9.748980543054282 13.449906464332592 14.721551107895372
Rh 16.036700194578007 14.823560872267365 8.39347542842066
Rh 14.297033096672095 14.948397647419007 10.248608849291566
Rh 13.797594162659111 10.749823820363467 15.339486847392081
Rh 11.933252293295652 14.117890174810155 9.649066705172375
Rh 15.348287839606355 14.006773277845507 12.473265208783051
Rh 10.088083359285752 14.222743669140979 12.279136474714857
Rh 9.594066314613539 14.275674210218147 9.6979058050632
Rh 11.276105989772828 13.826412248349234 16.89229028493773
Rh 14.944699937510727 17.935302064944473 14.548342824459944
Rh 9.641034706010691 11.71257440208951 12.628605195592574
Rh 17.013742696660387 14.606532884458462 10.73467394843164
Rh 11.7919013729738 19.406001540576508 12.217997652663966
Rh 16.274474316721612 11.14395926862233 14.530294535520786
Rh 17.06007431891699 12.213899806846333 11.771926436963488
Rh 17.16399252117625 9.866661985740762 12.543148520561802
Rh 11.061635881560552 16.04956984797645 10.994329319548754
Rh 9.491919843039467 9.873335543205458 14.443521581685145
Rh 13.875969820323228 14.27320243649068 16.98865055924592
Rh 12.598034995787906 8.675640375052344 14.193463479193575
