55
Energy = -328.5291046 eV
Rh 10.503490709238928 9.3515890399265 12.52692833259308
Rh 13.910919487039115 6.773529283043426 13.14579138683401
Rh 14.372745025217885 10.453205745943759 10.557544977076157
Rh 15.864297852609306 17.193448365067137 14.479642905289042
Rh 12.611785563425899 13.643132875520715 14.410240453949672
Rh 10.94122896324937 14.799689797689146 15.941544656394061
Rh 14.542888771136488 15.192103261653633 15.346397145588929
Rh 12.956800724247074 15.448320253149951 17.36313442903806
Rh 15.461750550808198 8.433499763241322 11.739530721936914
Rh 10.250515728050699 15.933581620620494 13.722039923738912
Rh 17.66756298148381 12.114098752129157 13.723482778336521
Rh 12.0616014579831 14.96930472545394 9.628957616456903
Rh 12.575699453600024 10.958675455035477 17.655890492560495
Rh 18.943655651380407 14.26139569386599 13.007750817282066
Rh 9.67768169427467 11.76431086990895 11.912287998116494
Rh 14.843646689393214 16.723904045579356 12.291456239553195
Rh 14.385672214376687 14.894819175778728 10.541962397811378
Rh 11.918525250791427 11.208393397224013 13.481378735462002
Rh 16.91244108744614 14.957637473066345 14.192469521289214
Rh 15.980923223155598 10.239211612370209 14.49349813445708
Rh 13.916722984195719 8.640592567494812 14.897093523107758
Rh 10.613343576243128 16.94398320538347 11.277040079581688
Rh 18.004469641654275 12.613315095475603 11.346857799782105
Rh 13.706810559286122 11.09832235664212 15.383226734658711
Rh 8.368151568950989 13.274527031455783 10.443194053028847
Rh 12.489286435290204 16.683770295833163 14.977228454158649
Rh 11.560311289767712 9.588819866429366 15.675245957506142
Rh 13.200215305359341 9.141083624191916 12.503218164727965
Rh 13.83190290385243 13.1205038636286 16.845537328977993
Rh 11.705028791959453 7.629907615185565 14.030954884934808
Rh 11.60312579756414 13.43244257761133 18.053170659993892
Rh 14.369078247561664 17.38126099973756 16.66938549911578
Rh 13.387628096445482 12.669557891788651 9.420110514687973
Rh 16.822166954096406 14.92487931696248 11.680700772909887
Rh 16.116841149582733 7.788019954168578 14.030420271258782
Rh 16.695988676283953 10.542790566204376 11.967815066234909
Rh 10.287055882159148 14.417161305406973 11.683199357825995
Rh 14.479951944694808 11.52562137148483 12.889454481469784
Rh 11.113968374401518 17.17156221846482 8.793911226313153
Rh 9.535835149119361 15.25603094664533 9.423913272418499
Rh 11.12845774056378 12.130728376228255 15.95757048400022
Rh 11.871948967788638 10.805048249684734 10.864718498182077
Rh 10.753088764467282 12.787397403984942 9.712562337056035
Rh 12.48394394593952 15.54331804072178 12.586233724157061
Rh 13.91057865356745 18.756264405327936 14.587624850587208
Rh 15.606236865432075 12.806058439100555 14.93236739271645
Rh 14.737880203544014 14.179002358879 12.981243650393926
Rh 12.481309118702455 18.120053231704375 12.717054381852883
Rh 12.656864969306346 13.10588199009757 11.810167811141097
Rh 11.53428013763778 19.130729282825467 10.509276626504581
Rh 13.125097478082434 17.201864496207257 10.419749231024417
Rh 15.57813249721616 12.691198318450315 10.851210096136962
Rh 9.480990504305609 10.897408490928903 14.350823016393225
Rh 10.081302438310086 13.371621344814839 13.960934687173834
Rh 9.476129284268941 8.413379671089293 14.702813422731127
