5
Energy = -21.0107897 eV
Rh 8.95169994001358 8.34850161513869 6.439527202309509
Rh 10.89834925195856 9.8699317839004 9.926189013103404
Rh 9.138218283075322 9.155571273063476 8.524749092636473
Rh 8.653517598762415 8.495982700269414 10.74360867555623
Rh 9.041916292130301 10.81371399356789 11.04962738233457
