54
Energy = -323.69354961 eV
Rh 17.472984020741094 12.982478338138888 9.56335154707163
Rh 16.7400690740897 13.83242547418952 11.75887318224223
Rh 17.9357179182302 11.562332156669303 11.76764254804272
Rh 14.992046700069679 13.452826751257732 9.551644800289958
Rh 16.369899473523454 12.271910271386185 13.812934517953359
Rh 14.834033629605637 14.334421536805799 13.352821524333702
Rh 15.004937152806745 15.670043906674184 11.159933607804604
Rh 16.209831113700982 10.916203206932815 10.064788717157167
Rh 14.225290235723152 12.4399489778819 15.067858991169452
Rh 15.93060046384403 10.079949536489208 12.610386287908385
Rh 13.405732568317704 15.403128509836733 9.241568841428892
Rh 14.796363211543518 12.240127855903744 11.753600971049151
Rh 13.158395676433548 16.270863588350398 12.938934883667281
Rh 14.618586767595987 9.803631398879485 14.893338493646587
Rh 13.228693103486615 14.91192121075451 15.159451646593075
Rh 11.683696137947312 16.383299131093704 10.853615320131192
Rh 12.590086732227823 11.86593396949422 10.39635173366837
Rh 12.38794180740984 13.078697917719916 16.786838474987672
Rh 14.234708264884107 10.986841030320221 8.497505829736445
Rh 13.000981261399174 13.143222991068068 7.938423941198256
Rh 12.046072054325668 13.071044915682815 13.842845305095318
Rh 13.187689808014484 10.775359136945083 13.00528111089243
Rh 11.492107750905266 16.76534370029233 14.763523033173884
Rh 12.879477810043134 14.113127836252165 11.595647254392011
Rh 14.065407413499514 9.721953228773208 10.742973069225018
Rh 12.220911799825215 10.921333172987861 15.468901247267734
Rh 14.099341754404163 8.271439169360628 12.79319670782986
Rh 10.66802086258403 14.557386886422819 15.622554115407809
Rh 12.96863182039341 7.5101785898079205 10.328595073329078
Rh 12.164970176962196 9.622702978784092 9.011875054508574
Rh 10.514606340433893 15.190607703619218 12.999472053876612
Rh 12.243516250866252 8.615210142718528 14.546243213397036
Rh 10.877391091093259 11.754074770753752 8.297368716273967
Rh 10.652246117025452 10.785086696781041 13.279725366415738
Rh 10.528638264032647 12.910458522841765 11.716220425971935
Rh 11.23880287638183 14.02522397766621 9.441451235419336
Rh 9.483233379179751 15.291084371930317 10.647165696351044
Rh 10.277513078188479 10.52629089688795 10.599702598462535
Rh 11.58824935641121 8.574173611379958 12.117260109087528
Rh 10.095853726768778 12.027853281106303 16.290810035267373
Rh 9.397835943608749 12.954125117327427 14.107227205222042
Rh 10.301025516346105 9.414025720435143 16.19080267955307
Rh 10.494984475964083 7.860146129611716 9.903014908258687
Rh 9.56027472888335 9.617280809715231 8.297318805059165
Rh 9.757263234130782 8.402011652303818 13.93878717859374
Rh 8.898707567380129 12.781292311013004 9.667486115646712
Rh 7.214799836012372 14.759889508524399 9.952269092198001
Rh 8.04641817056547 13.951266393749401 12.282684436486017
Rh 8.52257203419937 10.572720627540276 14.735196408933263
Rh 8.29584445143455 11.351582049720411 12.28308447083098
Rh 8.787014697704876 8.789700477778393 11.749916201192187
Rh 8.014856071083493 7.905237401074231 9.551868775258816
Rh 7.72212806630172 10.384303877963225 9.909951854535077
Rh 6.607159099678178 12.456728912117914 10.749246358152133
