50
Energy = -297.92256419 eV
Rh 15.47304388887641 9.98694835726144 8.182576873339887
Rh 13.454491326943806 9.26097787465855 6.7386336695575375
Rh 14.05028903959832 7.90045085386259 8.87588860163255
Rh 13.860825515706402 11.820292736032425 7.1174316469551275
Rh 14.825266038429344 9.9098294373241 10.731483586473491
Rh 15.416002189284049 12.227885233664818 9.285771363044871
Rh 12.230184239245844 6.651307053391806 12.535671297248005
Rh 14.710636658926717 12.15645055398801 11.85820770469454
Rh 14.75401041547987 14.444155444465016 10.505252111055038
Rh 13.007162097247788 10.306665495691234 9.070958014733854
Rh 14.144249161428025 14.249178476901964 8.013820919878622
Rh 12.899865200500596 9.25248553757452 13.308194916505643
Rh 12.677423646035663 8.4412787833587 10.899299355640979
Rh 11.427090326114339 10.768784439861182 7.080548158178334
Rh 11.457983883842047 8.434430682639833 8.333041058537347
Rh 9.746543876967422 6.85860017812043 12.180002396518788
Rh 11.184850690941886 6.501365794708072 10.018130825947889
Rh 10.794886277626993 7.95442709410812 14.184151478272522
Rh 11.727188619013656 13.305059572595717 7.650923626904966
Rh 12.989426323167445 12.72406470164547 9.662201315289387
Rh 12.401159122038974 11.102214045286752 11.506331265220304
Rh 12.761777294894696 11.99779945138106 13.886087929586319
Rh 12.116340230477268 15.096500134484199 9.815272121758301
Rh 10.56561661946354 9.393086516829655 11.96661565749199
Rh 12.746993948062546 13.772653068201931 11.993805944530974
Rh 8.580989890487183 5.839583937980705 10.12096489350675
Rh 9.324541786971153 8.340315553739874 10.081427058548076
Rh 9.467739742875894 6.894737958056954 7.996271402015969
Rh 10.538971447367839 12.538386802325713 12.66167205680307
Rh 9.405152649817722 12.159391494992201 7.678356271281311
Rh 11.615159328903477 14.481111127048976 14.14022623898858
Rh 10.735830400680117 10.384552198893607 14.399803417207304
Rh 10.239449006481353 13.329664271420153 9.868925840342877
Rh 10.449429575719055 10.71757610962865 9.631141171232292
Rh 9.199704975282577 9.502993064599194 7.598062965426948
Rh 10.507031073327001 15.069298030240084 11.831405550247498
Rh 10.527812618383793 12.585345941190857 15.401170986395163
Rh 8.452172639925088 8.996028744987143 13.35324640692336
Rh 7.272256119575517 7.067312120484347 11.870304166151676
Rh 7.170295402966988 8.291968773030217 8.90737063963503
Rh 8.701213132812105 11.133072763859387 11.585388986893665
Rh 9.041917556690315 14.18184238115837 14.00080178592355
Rh 6.8764243401453475 9.372507424200553 11.227270118825626
Rh 7.698816443735148 13.31179505784678 9.267467545629868
Rh 8.444652090870774 11.561595116348906 14.14023555067838
Rh 7.723318514353849 10.820216577546978 9.22759290933579
Rh 8.341423309966803 13.649012903059957 11.6288912650543
Rh 6.300806941283386 10.566804328819547 13.39080794608527
Rh 6.397275281187456 11.96048479402209 11.204438920883284
Rh 6.639434215186277 13.198222571649811 13.489954518464955
