53
Energy = -317.28491276 eV
Rh 10.8870076722243 10.428172508146051 6.8625184773760175
Rh 13.178264020458412 9.313191380640259 7.492103419235207
Rh 10.909690349968546 8.249198056952185 8.248916095029935
Rh 9.941429028764148 12.345701351898411 8.423840160644257
Rh 8.889439986048938 9.93231717982815 8.422430220817406
Rh 13.007218977126882 6.779980758868056 8.419950993706316
Rh 12.448880264067888 11.654349998470549 8.362751019283113
Rh 15.213318425723712 8.140968756626672 8.695765082709803
Rh 11.782817919895146 13.952763137058513 9.379299467811695
Rh 14.751313720919086 10.618238125856521 9.147147091948261
Rh 9.188854304597765 14.374126996194278 9.828987340660081
Rh 10.967794157877247 16.380061184299212 9.66880004397881
Rh 14.188238882112651 13.130671008244796 9.66348882818542
Rh 10.904968146645315 10.192152093615354 9.901494575460532
Rh 8.041981968794394 11.996158103379896 10.213423332002293
Rh 11.53974315173141 6.853537147224375 10.604883240458673
Rh 13.00484219899047 8.804247426311143 10.072215224522786
Rh 9.363111873602682 8.16442000504007 10.312011620578303
Rh 13.368345905718034 15.65232648893336 10.43425661573774
Rh 7.1644603048771085 9.63048192887409 10.265038159851832
Rh 10.568431360102384 12.430988692483325 11.055897523275986
Rh 14.194607687465504 6.690152597351593 10.737483926020763
Rh 12.991761457027005 11.29727410723212 10.984433670401483
Rh 15.41826422397605 9.090608986389217 11.1106322381277
Rh 15.495865661046484 11.640159194080178 11.44457485763085
Rh 9.854466340928745 18.156669683300052 10.94608607726126
Rh 8.477551037999767 16.175082967146906 11.751523504778406
Rh 9.062382710070212 10.234412729554647 11.783905410383463
Rh 12.985196323510905 13.690270724126131 12.018133205342222
Rh 10.726190973262845 15.044123379820235 11.805162020733917
Rh 11.96618780372967 17.197183956577753 12.079659528169943
Rh 8.425681662893087 13.576822438904061 12.205289826229045
Rh 13.25323192532473 9.182607139937206 12.656812597866406
Rh 10.725206542180631 8.365276174329626 12.528165443508941
Rh 9.821615683641001 17.543454622600887 13.435545759646143
Rh 13.828394893040269 15.777720485727048 13.054074638007537
Rh 11.309845075676796 10.840604400209282 12.948139492475772
Rh 7.272567626828142 11.461763544909173 12.843613264420455
Rh 13.861679635965924 11.665838324054116 13.416540502160522
Rh 10.717531427728632 13.204224010110389 13.515417530353552
Rh 15.240871674476839 7.363980327821891 13.010731251543575
Rh 15.660258979073607 9.877289158615604 13.50773210837252
Rh 12.764011426461535 6.734225127140129 12.917101007729222
Rh 9.045933201405848 15.187629199087448 14.12526657860214
Rh 11.575939128575824 15.736181175098878 14.175491373889917
Rh 9.193013482468373 10.146552205752604 14.271817222758798
Rh 12.883990241907174 13.525080291083537 14.753240266524136
Rh 13.375678444699359 10.82982366116151 15.64490958743153
Rh 8.589367229868273 12.654134093428544 14.746413986568312
Rh 11.603249372060612 9.149982413692573 14.845103132635392
Rh 14.081159290293398 8.439938584435183 15.012877884263865
Rh 10.945115313190138 11.591572526373346 15.524329892154523
Rh 10.551282821258399 14.113561359283759 15.93282559901544
