51
Energy = -306.43066328 eV
Rh 12.527061527763708 16.197559096719463 11.413031391393417
Rh 9.986181569908803 15.479092498043835 11.422874307053798
Rh 9.393767103197309 12.937543458044216 11.143905710501448
Rh 11.551757824416129 15.153942921602171 9.134813653661826
Rh 9.009215869568624 14.349142131038594 9.105942397393658
Rh 8.68359207845547 12.128269899557573 7.701764883227554
Rh 7.496513752708793 14.587228923615722 11.322266282507854
Rh 10.9483246795085 12.652475123551262 8.740531116609091
Rh 9.255174487646153 10.677811812869157 9.71341462305854
Rh 9.593475107343545 9.412533875984577 7.54734466500743
Rh 7.155217085592264 10.096754718668782 8.426754050675994
Rh 7.181632427081587 12.373573572555129 9.850924722333739
Rh 11.956511297014458 13.743441842132707 11.189048047929939
Rh 11.556843705304816 14.986346922493707 13.526380378071295
Rh 10.92267625345827 12.428469443043156 13.26241822769461
Rh 10.531634649643177 13.551545694806839 15.507447313508738
Rh 9.285709044303134 10.543275029810147 12.382206612762229
Rh 8.952345141790202 14.130649569613883 13.47641121569926
Rh 7.095142275067216 10.000324027002442 11.072357806918738
Rh 8.66002979592387 8.095304607027183 12.27044419945648
Rh 7.2608742169242895 9.859536894345025 13.72662041699785
Rh 7.275302898037611 12.244586184316992 12.522117188339275
Rh 8.843382809350768 11.696612310534926 14.701065225421408
Rh 8.529539619529324 8.199357093581764 9.62812926030753
Rh 11.2826562010114 7.717607079226788 8.608488977260773
Rh 10.727570416133778 8.648939254342347 10.84898666837378
Rh 11.3476389095157 11.262907214104048 11.004960360119776
Rh 11.749766099028562 9.856878065160531 13.110673135178876
Rh 9.663982478460099 9.114995895126993 14.583447299014095
Rh 11.12964485716275 7.404242355936923 13.063788685281752
Rh 13.82845644578838 10.474044881224218 14.650098412725058
Rh 11.322812282271709 11.042179640474808 15.450913994706125
Rh 15.546304472011428 10.39028548806447 9.805373372413696
Rh 12.978716463252653 13.08041056151973 14.787673231723934
Rh 12.1570431912311 8.5495022965382 15.231616317089314
Rh 13.770391023104912 8.220601793858393 13.161047539828035
Rh 12.750683702200899 7.118932941941245 10.908889888926248
Rh 13.378539162921458 11.866370693503654 12.495615626651077
Rh 15.404410190423105 10.21844854283053 12.446743997950632
Rh 15.368405776766593 12.462532565559076 13.950984286672973
Rh 13.291101493180518 9.614151175568828 10.92792187360404
Rh 13.77858881872618 8.484202934474546 8.749208351419366
Rh 15.248419526600836 8.021749275273836 10.994782405626621
Rh 14.098224574195646 10.847543793345755 7.672612959513085
Rh 13.174370763979534 13.552992826682166 7.828531678401476
Rh 13.478714569324238 12.027310644390926 9.836167370504562
Rh 14.025419903168139 14.426475553569562 12.690568714255914
Rh 15.549460311333945 12.699910119277245 11.31449426946315
Rh 15.584224468622295 12.803241253427922 8.677901093395654
Rh 11.80154899517711 10.210844255819923 8.613724632586635
Rh 14.153733261228444 14.6000545950799 10.039304813500953
