50
Energy = -298.51290532 eV
Rh 8.058507290689688 11.214118466977371 14.086748570649428
Rh 8.000925554373776 8.984789453348496 12.6529918871648
Rh 9.76164467833698 8.271236176686072 10.783494387429098
Rh 8.924167253512083 13.152847753197092 12.627677415552927
Rh 9.006289155700776 10.718095477168447 7.227450764252084
Rh 7.079487323980942 11.382896501527547 8.943269981839439
Rh 9.489059431823112 9.260394233991754 14.840769434048385
Rh 11.320720404497784 7.954111794865944 8.678075192018557
Rh 11.037349384068902 8.226464712047882 13.02344700668715
Rh 10.478971884919345 8.712219674403245 6.371826714047601
Rh 8.744968248289448 13.641393332793028 15.11329049029764
Rh 10.471855686315932 12.67233961842499 8.343603605738007
Rh 11.237916183321182 12.54996333054518 13.563644114356409
Rh 10.326466753158837 15.059358077112634 13.73231869528923
Rh 13.723787546821779 7.1306596882669515 8.773516851629159
Rh 13.018244939446456 8.661731556631524 6.825480812388806
Rh 11.88128800111482 9.985224477843529 10.609266815994225
Rh 11.494540137723066 10.412080405008382 7.95104850540506
Rh 9.618199567680092 15.040708893204252 8.677422174839805
Rh 9.42739640298209 10.627258946674832 9.74975818961503
Rh 14.325931251086548 13.803896436222146 10.445403922888547
Rh 16.65338171184947 13.426998910872987 11.192995359171327
Rh 14.829019551386168 8.202279713087117 10.778861843103869
Rh 8.873670854326821 8.31584275836302 8.357635501046984
Rh 13.934237305979487 9.678080062934438 9.051325491827633
Rh 6.824728925216964 9.378500248752964 7.509228974529372
Rh 12.924033352973861 12.039239405069575 9.275591299228509
Rh 12.306072511871344 7.463934038389464 10.957366494686921
Rh 13.207448381490744 11.756162928601261 11.966247010618202
Rh 15.511013214162086 12.140495426917516 12.971223792558934
Rh 7.29345609797461 9.087643056624461 10.163359908494451
Rh 10.922963324827569 12.496937016470337 10.934016149643071
Rh 12.005812633532063 14.472973855313063 9.529805475850734
Rh 13.391667640133118 9.20571202645876 12.598931146323013
Rh 15.221739926498747 11.294171374278127 10.511709868686513
Rh 15.853248615807006 9.671316587539367 12.538047359877094
Rh 11.616297148112023 16.745829601623775 12.403217973693309
Rh 12.45700080574621 14.387588987123978 12.093498407177332
Rh 9.98872384746719 10.550835075779503 12.440592961570207
Rh 8.539828903307884 13.200189502271778 10.025203216355164
Rh 10.089552339116835 15.057881028371726 11.156496184278094
Rh 14.895456729081225 14.612306233773575 12.835487816458045
Rh 14.330581000421743 10.580944542112709 14.540498404217661
Rh 11.83540290656538 10.164726616859024 14.412848818470813
Rh 11.471139182814445 13.866739918849285 15.767662525402384
Rh 7.540446515046525 11.309435907868219 11.504132813791221
Rh 12.650073954198065 11.595094608086908 16.29982329981263
Rh 13.571720916383425 13.05757781829512 14.43683758895688
Rh 12.87024150923027 15.535710602349646 14.346924822388402
Rh 10.109873798800113 11.643278355794795 15.663439335615024
