54
Energy = -323.53619447 eV
Rh 8.951376721490465 10.248138062844559 13.676893129623199
Rh 9.418903103382723 7.610306533873221 9.526342711711765
Rh 9.099387295696918 11.714679323800391 15.854390171809642
Rh 8.985182797338132 8.402265645762999 11.942490606225794
Rh 11.139977464194416 8.59840771653116 13.365778750508175
Rh 11.07321284546834 6.820526718734767 11.421958645652962
Rh 8.645147089976549 11.803660336415764 11.661976004982929
Rh 11.179752734856239 10.456282597388059 15.143731118165185
Rh 8.764364369301578 10.05674987785398 9.842653821810588
Rh 11.361709636904834 12.36643214309514 16.843230982074708
Rh 8.210704734529383 12.980135024631146 13.798433714047725
Rh 10.326813556855015 7.368298241222983 7.122706881663373
Rh 12.993252400783092 6.857561680623598 13.26781949061744
Rh 13.229506046411329 8.912572994332569 14.76097139598156
Rh 10.96095960796786 11.311984747354247 12.673219325635152
Rh 8.083653432994844 12.523343462801591 9.34241264770046
Rh 8.37700052076712 8.894812519386294 7.519947670584512
Rh 13.506409445708865 10.870254898456333 16.34789331422739
Rh 10.842204684387491 9.677339615517248 8.215475844971634
Rh 8.089759105691387 15.003241073365452 8.773682387930998
Rh 10.609123334077482 13.237865420790168 14.42668390458654
Rh 13.624481255964819 13.037855880076268 17.697801409140016
Rh 9.085788370359024 11.280925342334301 7.3941232373579675
Rh 11.166811538677809 9.345593801330585 10.891171615886577
Rh 7.504441715424301 14.128652696380595 11.417430384223746
Rh 11.930566528767509 7.437192770029556 9.048301803131023
Rh 10.901128707518868 11.73934200924558 10.018344066368625
Rh 13.511887882506727 7.8606729487315805 11.045536866229256
Rh 9.895603983922111 13.970889573606875 10.630754969596158
Rh 13.23316418064561 10.112810769218717 12.411138643103737
Rh 10.161180453938305 13.455531552709273 8.061291004305735
Rh 9.54878210204138 14.990305312210438 12.914123910931764
Rh 12.98390524108823 12.102731309084545 14.1217761692087
Rh 13.210486198466576 9.573299250772706 9.147919353647675
Rh 8.881026977068352 16.34590429853318 10.842296497528372
Rh 15.178934071983404 8.507532750320875 12.967488092488798
Rh 12.742896303978227 14.168301191822282 15.661371436538863
Rh 12.439203123115533 11.88068164401001 7.942030520099925
Rh 15.167695537556693 10.585108140176802 14.366869847324168
Rh 12.147028072155488 13.54041402589087 12.09413643162382
Rh 13.456225750199685 11.90501759291741 10.3721994667074
Rh 15.01257417950972 12.858912373930918 15.540059628943736
Rh 10.46306735141329 15.916270277858708 8.851090178156932
Rh 11.919066509516139 15.528211057603118 13.791584429161622
Rh 12.250628907896019 14.096533736291843 9.47334456833652
Rh 15.304592223215312 9.984401011827602 10.830941529024651
Rh 11.445297501075773 15.979473128959471 11.253917780772241
Rh 15.016144136316903 12.114348012495741 12.395462409614534
Rh 14.338390530811 14.332432406745562 13.561182848374484
Rh 14.998603118465144 10.987045174951682 8.33039652422383
Rh 14.464789656097102 13.51600228513491 8.422790228931635
Rh 14.4395501668366 14.31096898231944 10.978674132036083
Rh 13.700397705351424 16.382442921540942 12.129400369451487
Rh 16.033869694130512 12.443588411202231 10.12486834311418
