5
Energy = -17.99795797 eV
Rh 11.402981394350903 11.19376896920104 16.220384470326344
Rh 13.202480899031778 10.893056414772948 7.250626496184967
Rh 11.594549385844719 13.221333019795992 15.038105511507839
Rh 11.48762887982623 11.275631689964877 5.957607165503649
Rh 10.404325836045452 11.426735543910675 14.09033048427435
