54
Energy = -323.86708911 eV
Rh 16.2559203510478 14.264688103266499 10.240613728578406
Rh 16.040004101299058 12.118570283784392 11.807230650897784
Rh 15.370165949109486 14.489799017599935 12.83102713036876
Rh 15.52248565288031 12.45446194113141 14.378722221447655
Rh 14.863487721111015 10.157607710236798 13.469741255197484
Rh 14.982486653392787 16.391433295031284 11.021453570872152
Rh 14.740695832139318 12.33778611437135 9.436750153604065
Rh 14.335590992182127 10.345997167962292 10.930079921402905
Rh 13.900121327361322 8.12514255392593 12.213875178887271
Rh 14.230526570733447 15.030871330693428 8.602063211873613
Rh 13.791272773875066 14.150603611487506 10.842413910041792
Rh 12.797532694522266 8.102705444900252 8.121816748600978
Rh 13.572503826112284 12.311070967996098 12.63237887555578
Rh 12.874931714717544 8.74365732100289 14.62703001991686
Rh 13.176550263925886 15.908824059474325 12.86746587601208
Rh 13.468689516536395 13.997721369532554 14.509128895044348
Rh 13.185828272966797 11.312403548568243 15.106400580710718
Rh 12.489577759435303 6.594476561138733 10.422476381172034
Rh 13.163732051023915 12.98076642447048 7.50216726445078
Rh 13.139117926241392 10.615055592333054 8.403046183836025
Rh 12.196256571276631 10.131626114082875 12.668848552852328
Rh 12.355835332629862 16.28816738751156 10.483742696744724
Rh 12.134944100960537 11.779180362464112 10.476698892486269
Rh 11.547203626730672 7.453168451809143 12.866921029647827
Rh 12.18943110151778 9.05285551710576 10.387694537946688
Rh 11.805421191502013 13.21956500941325 16.226711048564077
Rh 11.559080846237226 14.026164104037026 11.93548907537981
Rh 11.71554411726043 14.190684877214656 9.142218772152477
Rh 9.829136985262945 12.91272403683849 10.379021525038963
Rh 10.064246619017487 10.383375338741654 9.592131943878702
Rh 10.941354554282647 9.5972007457065 7.32253546540201
Rh 9.091504178418576 7.099966772093572 13.484651082160985
Rh 10.219397421784173 9.297869786092992 14.20976134350676
Rh 10.543591009596252 11.017565749348599 15.919868808729905
Rh 11.175554195551625 12.362257249006124 13.848811313601937
Rh 10.45082328052658 7.644242320500084 9.105220056055213
Rh 9.767062040135489 8.641322801817196 11.46921403564705
Rh 11.060294919079084 14.951736677843803 14.232844600489946
Rh 9.130946166486016 14.213276355636964 8.379201947011275
Rh 10.13711299353662 6.106337704551934 11.219317945108855
Rh 7.81177929138005 9.367766387371718 12.959131158397307
Rh 10.704466405709768 12.160431639736016 7.881694192271624
Rh 9.855563407031454 15.45334946847191 10.678664048660298
Rh 9.34636712048867 13.42177065385711 15.471568782262063
Rh 9.854642139364662 11.105067043747612 12.08771709188871
Rh 8.455678173530847 9.946405869080412 7.71671385914202
Rh 8.499389613620513 11.43360341651928 14.216021787570757
Rh 7.712009555873801 7.2224091169119555 11.26971977053404
Rh 8.07877745606137 7.65024555323906 8.7808877765547
Rh 9.04877699751478 13.67934928933374 12.819605652018595
Rh 7.689280143181046 9.650191458700336 10.315130436513677
Rh 7.596107917066674 14.06132798516735 10.580244256318204
Rh 7.827684338423129 11.958772637449297 9.155300696592999
Rh 7.403249962250199 11.740202299537408 11.81440850027904
