52
Energy = -312.16943679 eV
Rh 14.516496969249836 7.409673603549889 12.889707766895013
Rh 13.569984445217843 7.216468821531545 10.33491155110028
Rh 15.495031014142853 8.90852617966689 9.444093233298934
Rh 13.188886880166821 9.016267852500805 8.39888835117423
Rh 15.129962406537604 9.909475741789581 13.620795393835136
Rh 11.999628402242775 7.199133987389908 12.4374836826265
Rh 11.297707082382402 8.167902127637044 10.080759747261244
Rh 10.326804846272033 7.713638278595768 14.353427286980518
Rh 12.860093576553798 8.46545073779597 14.48161691252642
Rh 14.116582898169922 9.357854907365176 11.444581920265833
Rh 11.00224843658929 9.971346722748395 15.319950634473827
Rh 14.59004573598896 11.153003574468098 8.967946278626698
Rh 15.318418010483384 11.504585873467375 11.523834680976917
Rh 10.66363792752077 9.304225412049076 7.857809648045145
Rh 9.48929302643392 7.725175693592717 11.939687350579595
Rh 12.23711855081826 10.799806564449456 10.062734145703557
Rh 12.365968899037187 11.259528031195508 7.408496623461041
Rh 8.556524712174165 10.450189510805505 15.78857794997387
Rh 14.97794742452491 12.624433622455841 13.849640669395395
Rh 11.84399357041314 9.769459306516003 12.488928318731324
Rh 9.818632897713243 10.098422015692421 10.89911646586867
Rh 13.093336956429292 11.06726165968333 14.399545621465071
Rh 8.786087896793573 8.325796485057666 9.430074501428402
Rh 7.718607431610056 8.066597256315445 14.005578103287785
Rh 12.99770769597025 12.292593211391385 12.071600795708095
Rh 14.2820381059585 13.441607528384246 10.168981465031552
Rh 9.287913629841732 9.932926112842253 13.423743047317064
Rh 12.648850833958988 13.62649078126289 14.472957544037932
Rh 14.03798360959565 13.238833488367096 7.613564331145428
Rh 9.938252658876412 11.516798813661689 8.793298446545892
Rh 14.017452701980613 14.650366284629884 12.434551603388508
Rh 10.018477222923696 11.5196018713364 6.304299413201734
Rh 10.796873373968916 12.027805003063573 13.486270788893282
Rh 10.436849336058643 12.374967317140266 15.973254798701582
Rh 8.252804703883701 9.716297405329955 7.15407409966596
Rh 6.794023385770615 10.55310916798738 13.818007791276289
Rh 7.383566816362489 9.283864211297187 11.628615724276315
Rh 11.971919755432504 13.324367876149948 9.032913254541388
Rh 10.515960467779008 12.606667006629081 11.045135945045052
Rh 12.731607869421547 15.443326727803203 10.271400793908526
Rh 11.824537309207525 13.463270643855687 6.275736707978232
Rh 8.436936668989848 12.555324217273082 14.279269616619079
Rh 7.566557584014369 10.637879548984587 9.438359158169847
Rh 11.472811374433947 14.632036967926362 12.301221866979832
Rh 10.1597210106663 14.419324325040973 14.46538820122414
Rh 7.960064473637334 11.786952722035874 11.856508686314443
Rh 7.758899939953441 12.263312996709686 7.411299263956497
Rh 8.19373347604483 13.247744675151978 9.782586112127023
Rh 11.584929634960373 15.545520845146378 7.890325024451416
Rh 8.867728337502406 14.192273307148259 12.16698313736261
Rh 10.16108661482961 14.966437528910902 10.00667069271465
Rh 9.708974624343835 13.883456015949177 7.652325718096631
