55
Energy = -331.82999598 eV
Rh 15.669249426252547 9.783753400416565 12.857060905424856
Rh 15.080218290559944 10.492247362659846 10.140094348609653
Rh 14.848778052080245 12.050804026374024 12.267128005305418
Rh 14.664405968534632 14.218425824338924 11.050009317936905
Rh 14.449168277862219 11.363219863446146 14.644934126314746
Rh 14.825546306849242 12.785966691257459 8.827983557808755
Rh 14.130702328156742 7.977885627902071 10.279611370351391
Rh 14.275099417058668 10.566387629122525 7.654533064545636
Rh 13.70576618690416 8.846218067827188 14.287986412000704
Rh 13.838726719529726 14.023870838047163 13.548998506312659
Rh 13.124818840481439 8.084983421652932 7.708651522027357
Rh 13.301160157898405 9.89963171010373 11.92131223337451
Rh 12.727648455865307 13.05728527552527 15.700956484731929
Rh 13.002561144597015 12.176971068780244 10.469268207590481
Rh 12.563331348634355 9.876033908719855 9.381714209075485
Rh 12.844823983373871 14.497429723923329 9.213028553361342
Rh 11.677687073368634 7.52199865026468 9.817132319206594
Rh 12.685531259415084 12.602955731411482 7.474398175298963
Rh 12.194343573275694 10.591851671877325 15.65432916094522
Rh 12.483380982475117 7.49450619539104 12.306717974746915
Rh 12.389054506552137 15.151448127817178 11.73736750624139
Rh 12.300297203061442 11.96004328660665 13.283444844674941
Rh 15.0648601990018 7.39201739989899 12.520695806334974
Rh 11.795439004603589 10.117843633187645 6.90314685621778
Rh 11.513821142613047 8.155453871045044 15.646346642937297
Rh 11.28112523110455 9.455070870709536 13.519019856267931
Rh 11.321121214170875 14.370143152806909 13.923705577784762
Rh 10.932227547436632 10.706235630386185 11.306143697712198
Rh 10.458864647402192 7.992136689610282 7.556788962274385
Rh 10.26712395418431 12.371137066336685 15.274737842738725
Rh 10.831079865622138 13.48459531494126 10.631324046593711
Rh 10.743416446208775 11.66540014413809 8.77685298694339
Rh 10.068131860127668 8.083871053216386 11.694868759365452
Rh 9.56237140461927 9.969693558186732 15.340166618605517
Rh 9.429693912333889 7.726539446331123 14.121581486780661
Rh 10.7608174357951 15.979603897513128 9.851936563595418
Rh 9.765912829296667 12.522597774645206 12.786225999277596
Rh 10.523665018924063 14.214675830619356 7.978129976611795
Rh 9.63661988602962 9.41293929274839 9.505793646631611
Rh 10.418525695233557 12.295706008902899 6.243091722289102
Rh 8.709917935037476 10.006424155080841 12.861080889916336
Rh 9.682090862459608 15.263363680155429 12.101195973820353
Rh 9.113063801416045 10.285178172181485 7.111146477611432
Rh 8.725263407022942 14.32764901831096 14.307445858906872
Rh 8.762483124159175 11.878595983237469 10.47134425956544
Rh 9.21843821349077 6.827050187826812 9.638895300107357
Rh 7.824874519538852 11.887318299280203 14.290532670662902
Rh 7.66256274836557 8.706661363873561 10.888375449457266
Rh 8.575202662264495 14.53035429370196 9.776128460501278
Rh 8.419225306125167 12.670976029438641 7.929614718251412
Rh 7.173333474666139 10.518812430584019 8.988406443221432
Rh 7.54838637470131 13.617355640353372 12.077080597052444
Rh 6.707132934722866 11.018569061616953 11.633858777883615
Rh 6.528039470370806 12.900356302612662 9.758545332266605
Rh 7.843365844113045 8.272254119004952 8.009628411875227
