54
Energy = -323.9948258 eV
Rh 15.786782885736596 13.5174603900934 12.732882529773946
Rh 11.909496119171413 16.906467454842126 12.68625078414362
Rh 8.441543358814195 14.319725222988074 10.35956619162064
Rh 14.810052978597943 13.484897152498887 8.185773575049591
Rh 10.27567873186704 6.196740570914431 12.973873312559565
Rh 7.564976513230103 12.201030309081894 14.214921123848573
Rh 13.406590613168014 12.63307704415839 12.85145930182053
Rh 8.324778567959049 7.71156104966609 9.38195327037338
Rh 9.451363455033874 13.950019582129407 14.604933195149224
Rh 11.205287931128032 11.83635698831633 10.485494067246961
Rh 10.048227702408324 9.591061651336664 10.015896676528548
Rh 9.967011153710557 8.577393015062738 14.211475942766748
Rh 11.517601756500655 8.121509473433683 11.544368992456747
Rh 16.136284571574876 12.349512287380154 10.435147621052344
Rh 12.036428263862765 12.425163553543785 15.16166410619494
Rh 13.009209411544784 10.29057283703249 11.797529486128111
Rh 8.603525730022504 12.132537342643307 11.746911388363795
Rh 11.086252796725075 10.768759773355832 7.972844308915837
Rh 11.939771683440895 14.728792087450932 14.058429806472633
Rh 10.63470034853101 14.15681335113155 9.296731227350689
Rh 12.259893361633877 14.377955792952699 11.276457263032398
Rh 14.859819211155884 14.557378465140667 10.553199103590073
Rh 12.376990548741063 7.494945015896777 13.756968253715128
Rh 14.070592216311342 15.451001178991545 12.835260168973615
Rh 12.46303178867776 5.750431078127647 11.705767342909352
Rh 12.681918779144818 6.688968622062152 9.350374659207452
Rh 14.04896054423777 7.897187093939646 11.28353038276018
Rh 12.218226151434928 9.997578563394473 14.289051426658917
Rh 10.440319367722642 10.31755101914287 12.452072907512619
Rh 9.94861152448728 15.248843266907105 12.360653393601995
Rh 14.360629630647017 11.263009970148252 14.81430575147991
Rh 13.82225189806409 10.906257332556489 7.927632825051539
Rh 13.649158809216086 12.29046893452889 10.089499608004807
Rh 10.687763262066328 8.014509333819426 8.14185446542781
Rh 14.246962075062505 13.92252295076994 14.92625885807342
Rh 15.367559075676166 10.98569626572786 12.465595066021493
Rh 10.791324117289301 12.809172881135858 12.84648649490176
Rh 10.297170087529016 6.3647108743219505 10.228128300928407
Rh 7.5703537207156755 10.015745299700985 10.451956067894919
Rh 8.923504443575984 8.030436441159805 11.849138324089783
Rh 12.350120952291169 12.955308117535754 7.947524476177273
Rh 7.645597071470557 14.274370645158362 12.781007404264408
Rh 6.12385422111011 11.482708295931285 12.216757231140017
Rh 6.712479127030745 12.486709968644135 9.971081681666393
Rh 11.05354803152478 16.470456075181605 10.312402744656712
Rh 9.066401384740827 12.108723602982087 9.073486744018
Rh 14.501280688762153 8.886621890956857 13.666176668838943
Rh 13.66398391647346 16.887711709097562 10.791244111130434
Rh 9.80475090498031 11.1647928783381 14.741977273639378
Rh 14.993410655932827 9.977451314309866 10.096021356631097
Rh 8.628129991527784 9.812747515549827 7.959342617785018
Rh 12.63825986505783 9.196625402880528 9.337504198508908
Rh 7.911515432630222 9.91879417934468 13.118016654275166
Rh 12.914940079020623 15.247016575773362 8.942692606333795
