53
Energy = -318.4474511 eV
Rh 9.147087062189733 7.265519408780131 7.901838251213892
Rh 8.33861999442199 9.218896535036949 6.373459608382705
Rh 7.048259356363298 8.764537537009977 8.652177421897367
Rh 10.888176699644118 8.961598569829544 6.772898366156599
Rh 11.246113384527717 6.363233269584226 10.941977416055542
Rh 11.403600335331422 7.853255996209301 8.994576579046063
Rh 9.059955816366983 7.7096495282194875 10.587967806046498
Rh 13.139498344717255 9.399435835398036 8.012289953696854
Rh 13.30037456673331 8.19479882772923 10.732203570678374
Rh 11.779069149412376 7.723728675694897 12.958464091687572
Rh 9.352195527663852 9.641741818939858 8.78176719634227
Rh 9.785132003033407 11.425635263901222 6.6873811553651485
Rh 7.295873034594718 11.162098014773466 7.571342368884625
Rh 9.573923561244877 6.6396785714896485 12.886456962127564
Rh 6.302410445773964 10.871842704402956 9.99305795869422
Rh 12.266582389420392 11.056493142237018 6.173934910162114
Rh 6.64885944813434 8.639147868527632 11.142471196052384
Rh 13.22454716133312 10.740607836827149 10.283227744886466
Rh 13.890631684720894 11.917019749620804 7.978870567528515
Rh 11.325088364631608 11.295323369891065 8.74093728883217
Rh 12.844444248505756 10.008116410549176 12.71592529621572
Rh 10.977892573667601 9.543652910091211 10.877727705551333
Rh 14.319473698047515 7.952795591064374 13.15746918379362
Rh 8.56587102774881 10.454874733746097 11.151255797540522
Rh 15.402303711773316 10.006840032633201 9.14746666717051
Rh 8.305999768288164 8.741702540426424 13.073257351893998
Rh 15.289211103408139 10.009085351239719 11.70564837094776
Rh 11.503615412882978 13.333109851622423 7.313872969215646
Rh 6.3954220536884225 13.186012310619278 8.71192431961467
Rh 6.577315637916301 10.733205401738864 12.722481645378918
Rh 10.201964531470914 8.572870434625802 14.876673967237693
Rh 15.20405093523135 12.300871731211139 10.35292424622575
Rh 8.85576428991739 12.21754978655279 9.263943724009215
Rh 12.741110173229666 13.358313606692523 9.729599814215803
Rh 10.53128453933316 12.19514908444442 11.200101450675449
Rh 8.761723162393551 13.719703346014377 7.3405417202377325
Rh 12.718888989475985 9.157496067196279 15.025980685800723
Rh 15.103297496817227 10.094759200540425 14.268115518493063
Rh 8.362409619494255 10.552167990060418 14.845413156563039
Rh 10.329236176970342 10.439635079975295 13.176790652605781
Rh 12.970500175697936 12.463122071779537 12.170320768675614
Rh 7.237985869973108 13.007600347661395 11.145319904383692
Rh 15.27212369859595 12.366172211644706 13.043311402888367
Rh 7.939655459759325 14.963399240226629 9.669667813395868
Rh 10.340495871138614 14.26869516066098 9.460556122164663
Rh 14.419717601125408 14.449353870408679 11.503320512251415
Rh 11.762378841498732 14.66490659930082 11.748290418661856
Rh 8.5741831704687 12.367927539532376 13.15285818090544
Rh 10.93582534155809 10.95969915833769 15.595650172137237
Rh 13.154845501689074 11.735768754985253 14.633073413771795
Rh 9.267869844774998 14.4587617327339 11.893298162420942
Rh 10.966658532835826 12.9993400224063 13.73276081835174
Rh 13.376762007625794 14.21709775104395 13.892634907314216
