55
Energy = -327.14478384 eV
Rh 12.224397729847698 11.20071057909752 9.549355421523982
Rh 17.104366912732583 14.114441021493118 9.506772224526891
Rh 14.663914386292088 12.330327086412488 8.936597664200752
Rh 14.739815018883736 14.869150150326163 9.268786474509081
Rh 14.698371929624951 17.567769931145595 9.876899025557986
Rh 12.704806541071424 16.158206618683746 10.276952554020475
Rh 11.767146725016884 10.905845682020884 12.02400697138379
Rh 12.647028108324681 13.60449381454404 9.968013321182404
Rh 9.887457829583074 11.596607685984639 10.411534745351794
Rh 16.28971076771971 16.020395750430716 11.028790693671894
Rh 17.43014396310285 13.968151795489781 12.091828523512396
Rh 11.983101419139933 15.60431386225626 12.718351930469053
Rh 14.259722207742065 17.158578973106046 12.377454585951996
Rh 14.042548636655019 11.889158161013786 11.361981900403043
Rh 11.687547749467821 18.060506709609548 11.673822224177398
Rh 16.47754363805686 12.057791337493567 10.70559666781937
Rh 10.215444792657848 16.095986919284222 10.943653874210424
Rh 10.62986923596078 13.64674976848197 11.382209778655076
Rh 13.567793043197286 19.44307279255564 11.111532417577685
Rh 9.298608836352575 10.549776058961694 12.636041701638272
Rh 14.255748328327371 14.630323102422102 11.817438074503535
Rh 15.425976704062155 13.071179282379605 13.389068555284252
Rh 18.842349937428693 13.758798707941747 14.017573865377429
Rh 16.10811847855718 15.691719545947567 13.554293126972617
Rh 14.266996994715248 19.45867584756767 13.50773593036608
Rh 16.13006906132091 10.777851304361873 12.817971626835778
Rh 13.682126219922411 10.61039630207519 13.664501931356115
Rh 15.592053311512192 10.121059293418499 15.257939135574796
Rh 10.148460400604257 12.621134676265063 13.674937656585403
Rh 17.273895724898452 12.066968197141273 14.843291020287596
Rh 17.91491991594344 15.620268354632634 15.229358460558434
Rh 9.214471819904675 11.242782422582717 15.518109225862483
Rh 9.68349049246375 15.054480129685594 13.4363328430743
Rh 11.567381084127708 12.128339910088565 15.930978867326976
Rh 11.194728015614723 10.186249030640244 14.348635055482351
Rh 12.365019314208945 17.968345160219098 14.067946850706386
Rh 14.79800982899878 17.44497801009678 14.94352972673971
Rh 12.67390691704283 13.054625438910808 13.259500075983249
Rh 9.917429761385382 13.939479956325732 15.82221729586016
Rh 11.413588055058929 15.841274187260462 15.183697785129365
Rh 16.018858354983294 14.09880406032903 15.68990057342069
Rh 14.112767734312738 12.382504288440918 15.56846608720633
Rh 13.71921315666768 14.94776096851685 14.610406291894387
Rh 13.08604355014649 10.090094372344968 16.20038602089605
Rh 14.771392087898807 15.962601612358107 16.987165945815644
Rh 12.543785836963766 14.335326836646637 16.89448681723381
Rh 15.359258758891318 10.983938498063901 17.554942551996557
Rh 12.77709474042479 17.339846250384664 16.58589471632638
Rh 17.099292798285003 11.052643584769434 19.376838910551225
Rh 17.320044952923517 12.508482085163454 17.293619035110776
Rh 12.966396168992041 11.984307636013712 18.027582554378668
Rh 14.874388944891725 13.637107947788216 17.98145426932008
Rh 17.092614030933607 15.164394475728216 17.687500000735405
Rh 14.7468295600537 11.929432864139114 19.841979836899235
Rh 16.807421207254542 13.53527268210887 19.647618299153848
