53
Energy = -318.20431794 eV
Rh 14.65009679830974 8.646128555052103 9.067529498727545
Rh 13.66620740789859 10.620396126062637 7.676120858933956
Rh 11.538591202472775 11.078643415378027 6.423933426307515
Rh 14.955159240504482 9.257014896410308 11.594295535224386
Rh 15.24553690176984 11.115143913774803 9.849653613334434
Rh 10.728442379632503 9.597363575191741 8.471222395620408
Rh 13.200107838905437 12.917458727812287 6.237061500573506
Rh 12.819229933087366 7.854996528308203 11.817948119693375
Rh 12.204811093614307 7.687054730467369 9.253327597293337
Rh 15.275945778948412 13.62755457335756 10.722700920109412
Rh 11.364309385224573 6.584113005750974 13.476613507935053
Rh 14.783790593090401 7.393018620391474 13.308753806166855
Rh 14.038267592546768 13.035465862700063 8.59050929095295
Rh 9.602056077408596 7.419249345540963 8.797360493175898
Rh 12.888556799731987 10.0449969887773 10.067907785201953
Rh 10.567373767812766 6.819266505881562 11.087498158764541
Rh 15.086268217580402 11.801967755885666 12.450410092412898
Rh 14.9220147803374 9.853581887382049 14.089232335116723
Rh 9.313248261453841 11.54188893585667 7.473123307909885
Rh 10.47168201227891 13.387205163006673 6.1863727134934114
Rh 11.622069278694793 12.097284962418213 8.829900603499231
Rh 12.725332936611462 10.29459397278763 12.737946983286177
Rh 12.944422279192345 12.332888409797924 11.050811764937704
Rh 10.675828404153961 9.395107418949042 11.14230966004935
Rh 13.057687817686961 14.861828084713242 10.259484411470186
Rh 11.998607966745869 14.474893841911555 7.874600011121638
Rh 13.653523800429262 12.115747401191385 14.52326183357224
Rh 8.098795323677525 9.646356301394686 8.679657405097005
Rh 10.439705174771678 8.884055710237535 13.682076559487875
Rh 13.614826624518132 14.075366779067398 12.77326526412216
Rh 8.460435963633449 8.332339951874104 10.884134393337543
Rh 9.531173137997586 13.849568931830827 8.600084456133066
Rh 10.766860522310429 13.635512506406974 10.885951342132506
Rh 10.821636834044218 15.922652788573764 9.645365517450767
Rh 9.479021064479905 11.492423059918117 10.145252722204326
Rh 12.825646787806013 8.415601714523602 14.50724427266296
Rh 8.829643899335247 7.055746690431132 13.019652098090676
Rh 11.366579654253002 12.400168262701172 13.146569097119063
Rh 7.3107779042963195 12.234567717135794 8.926598046317794
Rh 9.332598651419142 11.018175807898865 12.61312831577255
Rh 11.638431196178999 10.653365367797246 15.145900461697373
Rh 12.315662776252502 12.903975856645898 16.411165919732348
Rh 7.179363976102849 10.496730702910556 10.881977778001762
Rh 8.573050670087548 14.986009555773169 10.703964005129526
Rh 11.582296658203536 15.664084590170068 12.207723212729475
Rh 9.540124169827903 14.23994000745387 13.10726046858434
Rh 7.542828299640036 9.29671376312011 13.191872959477513
Rh 11.739043070351594 14.533160175748469 14.508793645458281
Rh 8.993004766021661 10.449729494665311 15.0482936268568
Rh 7.6890339351575685 12.892777209586752 11.53723417113465
Rh 10.029104285694928 12.7413673231802 15.302083413249806
Rh 7.847987697864032 12.559669948849946 14.033261013114409
Rh 6.009704317424203 11.324418619879353 12.8955049320578
