52
Energy = -37.51512873 eV
Rh 6.310981327113399 9.826376738841866 12.23043611907674
Rh 11.539954561471179 9.379160347982193 10.614094331239006
Rh 5.909100207003147 12.014200621391872 7.873872718907048
Rh 10.293714656769563 13.792381337099261 6.065726920933316
Rh 8.122753398202281 10.336518078426952 9.050116166170929
Rh 7.346353094962965 7.148697285833306 8.13564236973732
Rh 9.819504635276624 5.727176651385952 9.070060803197705
Rh 10.947332610098867 12.163693552129551 12.794258035961258
Rh 14.403099130752363 10.16412367965031 10.88504407434558
Rh 9.583182616503684 11.478775994576946 7.301854239179985
Rh 13.642938649394996 8.602477168925116 8.943195671280119
Rh 12.050475572637247 7.311583796366948 7.410875109954977
Rh 6.773489904586332 12.221803611629353 11.818538575254468
Rh 12.346469945241829 12.453861005285695 6.902721713739044
Rh 12.028484058919062 6.736983725010482 9.925257748868136
Rh 11.052794102689878 11.403595577836208 4.9885868218451375
Rh 6.941300462947143 11.148680360855462 5.732923306177878
Rh 7.881969198997851 13.453461966924007 6.902692438860512
Rh 9.923544848903983 14.033525126215507 8.74378351279811
Rh 8.483071332461483 6.095398036423169 13.545890483952935
Rh 5.57076585715872 10.790713302143587 10.033691085644646
Rh 8.623004275446416 12.780402323529328 4.497802664937613
Rh 8.025579028761559 9.006025931983755 13.974293254408368
Rh 10.842293453748637 5.566915840341753 14.16628961866884
Rh 8.981350820647933 10.297347949486586 11.498407042963711
Rh 13.718874367306068 7.941266766203792 11.66325071474673
Rh 12.219978840094262 7.89665680784497 13.92595583491903
Rh 13.511014829260578 11.2306571192029 8.810243011057524
Rh 9.057579723728034 8.135015418853675 9.95089668409971
Rh 7.536972013695952 13.091856434161693 9.517395549939826
Rh 12.486646930963484 5.858343999091652 12.351139436947042
Rh 12.56276376090197 13.659486578083632 9.075050747389604
Rh 10.54431073749287 11.617947002729622 9.81090577786592
Rh 12.719482267433094 9.846772379326337 6.766355460100386
Rh 7.731132280965696 5.9530333823541275 10.678179983935788
Rh 9.572919608458456 6.934661729328594 6.910977791904714
Rh 8.89829413809511 10.31748564967246 4.307809906553566
Rh 8.029590875958341 8.845426283524628 6.301477864568799
Rh 11.232768409987811 14.116932121756681 11.11077084503978
Rh 13.029496536133536 12.242576050543866 11.23153450486582
Rh 8.945158929462082 13.456416233849454 11.639152920465506
Rh 8.489835686684891 11.721927185849909 13.67888301068017
Rh 6.660029326358075 7.386932843685577 12.439820905156855
Rh 9.91348429990485 7.652069605143425 15.178076645762985
Rh 5.957578885744171 9.396034523387783 7.764500571011886
Rh 10.119824451393185 5.170297347849082 11.567048749705032
Rh 10.52023687639612 9.331282096432185 8.247160034285994
Rh 10.07191700380173 7.977029235609146 12.248976022417226
Rh 12.825087419195885 10.28910583691231 12.946378540510329
Rh 10.65681911893265 8.814412763540732 5.556827339328144
Rh 10.50620893911242 10.02483688957314 14.192283575528075
Rh 6.092303775488611 8.211475488861163 10.076710526757678
