55
Energy = -332.6884038 eV
Rh 14.203119699346761 9.021782867095943 9.112228314933398
Rh 15.491132622493366 13.168925629576774 14.050951014740875
Rh 10.695449868362724 11.043639274921132 13.830530559486482
Rh 8.068560141470114 12.990310639875103 14.137954204695742
Rh 10.498014363554665 10.174681468235763 16.42562352106852
Rh 14.277960133703091 11.670883734477512 8.1866362289939
Rh 15.327353114923984 10.739495619366625 13.195287371047845
Rh 12.315983123188236 11.990627139111586 16.744074759616417
Rh 11.824894083326823 14.40624420793184 15.737323968032818
Rh 10.256071291625744 9.973557665393656 8.911651029951013
Rh 13.877170889730683 15.443940024388192 9.886063640202028
Rh 11.371520218829755 16.173524729988095 13.757405412894695
Rh 11.948568139445506 14.819796122897554 7.879416522584916
Rh 10.615108609779769 7.084319479870922 12.390593509193586
Rh 8.216038127626536 9.595969656700317 10.415043402914229
Rh 14.801587105498585 11.188569171231627 15.722273163498217
Rh 8.847945656971632 13.757540679115808 11.817548651607185
Rh 10.537785037930252 9.604051306993764 11.623949300253841
Rh 12.709505804804119 13.15715225929977 9.624038031127057
Rh 11.848053405879199 7.980331229639535 8.326633453338287
Rh 15.447808826553091 13.339759623987133 9.841387562716045
Rh 8.442343352692363 8.610436523077043 12.81394446329174
Rh 14.24433243280695 13.696823966832712 16.199019504493997
Rh 13.54226086327326 14.798781303777579 13.816848916507507
Rh 9.825539897182988 16.13493511057914 11.718127781609176
Rh 8.45010604571068 10.409206007592955 14.786395875081311
Rh 12.48394891004038 10.61594857558458 9.97709388013986
Rh 12.478201006026556 8.069044036537893 10.782788406834955
Rh 10.217640369504169 14.32919274160548 9.720964838505681
Rh 8.978454059328492 12.03349752948282 9.833927473678418
Rh 10.877938723133667 12.372014459391501 8.13686472881429
Rh 12.863517619406908 10.361271105761803 12.5062542314516
Rh 9.904310679428768 12.559911043474653 15.88538366436913
Rh 9.916504495278339 7.626234059085558 10.035798903121872
Rh 7.895113666272033 15.557178493939446 13.232691631806588
Rh 10.485837144010398 8.578755997878876 14.413633632266581
Rh 12.890646584049026 12.272387628728735 14.329716082367227
Rh 14.804732606075957 8.615383450666998 11.772363643151987
Rh 16.634181653811602 12.524847690378795 11.879330571973151
Rh 12.699153572818302 9.8048108351278 15.203548921643554
Rh 13.774432792459972 12.803810854955294 11.99408059100168
Rh 14.893117899637147 8.74933861186237 14.547331671998794
Rh 11.97204235481446 14.703663342468445 11.633869148720938
Rh 11.574765853894217 16.55547576461283 9.87068491375094
Rh 13.446558591258492 16.691573740117587 12.085939772595792
Rh 9.408351217649495 15.073441256405156 15.144112632998969
Rh 10.6653591362506 13.610391926450239 13.601808157627216
Rh 12.803451635225812 7.949550663298738 13.382533925033126
Rh 15.048813299991407 10.88603674052761 10.596010154981288
Rh 12.701253716542945 12.700737557547999 6.420949336405822
Rh 8.533420447039777 11.235307977282178 12.326352023257762
Rh 14.41043403437652 14.158502430415192 7.6933737014663555
Rh 12.28402198031494 10.285745090810309 7.390249209476816
Rh 11.045045901372312 12.203915771638899 11.414323578877227
Rh 15.363421295557742 14.835629284284261 11.97595451008321
