52
Energy = -311.31661873 eV
Rh 10.181830912227847 16.346605668473355 11.098516646255202
Rh 9.13164027803874 14.053429253943273 9.318674821492698
Rh 11.601986795369438 14.77908841100863 9.423339757924998
Rh 10.659976886738729 13.089620089232236 7.431465153979735
Rh 6.8339965266495515 13.092597404878966 10.098695103535123
Rh 5.71903407111944 14.418877426905663 12.004584065881723
Rh 8.058048215233272 15.023168671371034 11.41111176164241
Rh 9.60634974371485 15.32048940297266 13.557081289401651
Rh 8.483916253774494 11.779721421679012 8.532034437342535
Rh 12.656734943362098 15.643566412550209 11.629102903429443
Rh 13.073889931368841 12.98997124579575 8.495058279957295
Rh 10.544787612060338 13.915871710629768 11.659474905992868
Rh 6.0774826320971 11.883597532067318 12.31213820173398
Rh 12.113666074560285 10.747516097386773 7.894610578242341
Rh 10.948289392268249 12.19047258292028 9.755201945878564
Rh 8.649306648814404 12.157666806717689 11.644750488156655
Rh 14.174039485897206 14.990693575759881 9.65436777029051
Rh 7.017717842827599 10.478153786893044 10.493150044668079
Rh 9.978363172000634 9.912800809422695 7.457483897207399
Rh 11.998256223168625 14.325422389997188 13.777727869859918
Rh 7.550893515066296 13.642706479913002 13.552639675770902
Rh 9.946424778448085 12.724998219369098 13.941604088723352
Rh 7.779622266944746 9.212432112174232 8.353540522647315
Rh 13.018922881921707 13.052796967072863 11.645602430460825
Rh 9.618045451724141 10.100021597501778 10.084007968565167
Rh 15.221352652906546 12.590509896575334 9.779272305941896
Rh 13.185527757938962 10.887638030989587 10.305454660156595
Rh 7.814178334460464 8.047639688398315 10.558101588678888
Rh 11.105410885404435 11.102268684582889 12.080966638894479
Rh 7.952578468049079 11.125778364256325 13.94765204779076
Rh 14.721067228575848 11.020158641100274 7.815289833452581
Rh 10.012360627122074 7.7688227490970405 9.052756211560531
Rh 14.400996730880829 13.340200409107716 13.963052325682881
Rh 11.69564268901414 8.781874632259363 10.768034703340428
Rh 8.939652129073446 9.339847319604374 12.45179668917304
Rh 13.69196351855741 8.896474290515203 8.693842259106365
Rh 12.365882726265019 11.803902946874258 14.274315917441097
Rh 15.280745678321475 14.240616180964363 11.798438032978398
Rh 15.204390286309534 11.610542130801672 12.119795808823932
Rh 10.299098416540609 10.251430253809268 14.557750751022246
Rh 13.286116212294202 9.850279395834463 12.68014552576252
Rh 9.840091361819141 7.08464706034169 11.582239377585324
Rh 15.611434001598612 9.985488958314 10.122201605502498
Rh 12.332540881615218 6.865187836307369 9.189982227518275
Rh 14.809284296949025 10.846781948342967 14.549563637673401
Rh 11.254731018217662 8.303535275408612 13.290086992158765
Rh 14.186034755101938 7.958954941808459 11.017036022936932
Rh 12.725344820366344 9.313732993638366 15.154485851812812
Rh 15.731037927198505 9.150483016675777 12.73109375425451
Rh 12.263652941039116 6.3841993115989695 11.806865350809398
Rh 13.808690416429814 7.504170092203368 13.551883481174597
Rh 15.250370077634663 8.509196336419643 15.319144056389343
