53
Energy = -319.69851005 eV
Rh 13.457860960157749 12.609063182688176 7.531470909126148
Rh 11.235523574968633 11.236179968106102 11.028774185354475
Rh 13.916231002640007 15.552112185314122 11.098416400590661
Rh 12.59620955968529 13.40834338515564 11.04723186619452
Rh 12.61859366433467 14.802433490140725 8.911459025466424
Rh 9.073036970672236 11.236113716531289 9.676692483952566
Rh 9.014601383314602 9.862829605115202 7.531739356557121
Rh 7.6236026277377995 9.049128249737072 9.757609471535744
Rh 7.634635653301156 13.450006260797247 12.452643269994939
Rh 9.875936235175717 13.408627070210036 11.047235901728186
Rh 9.867266466403933 14.785871878534946 13.296412796318167
Rh 8.556750816846304 15.55270101349936 11.098092539874624
Rh 12.605342419004952 14.785609268423181 13.296609280363413
Rh 11.23632267070482 12.641018854098489 8.779532930490562
Rh 9.854464797542583 14.802608802472028 8.911508030359272
Rh 11.236222759428681 15.635429190115163 11.098803469724235
Rh 6.9054396683251635 11.236040436293605 8.398527105272882
Rh 9.014818788496722 12.609022825132952 7.53145653675919
Rh 6.811085202015322 11.236115655553487 11.078212695181428
Rh 7.623993711875599 13.423205168908202 9.757316511499539
Rh 11.23575458503936 12.560764903175619 13.205869162793372
Rh 9.013978052035247 12.60482252851182 14.613451595646424
Rh 6.901243290789139 11.23622230610903 13.74696845837629
Rh 11.236364276790848 13.836770622275727 15.380964720986343
Rh 9.026288163866258 11.23628833038924 12.374915394301343
Rh 7.634033886237132 9.022349414419795 12.452954027588126
Rh 9.01374943818984 9.867613454997016 14.613437334925866
Rh 12.61789119437242 7.669449091889226 8.912063724039779
Rh 9.875516039255709 9.063787877867759 11.047469713495223
Rh 11.236046582744146 9.831048955565993 8.77976702298354
Rh 9.854052895077206 7.669680954728409 8.912217028501612
Rh 9.866655712233978 7.686452294881657 13.296814519339533
Rh 11.23555363782039 6.8368483308584365 11.099224904252447
Rh 8.55617995244362 6.919656161321884 11.098568485474948
Rh 11.23550316232517 9.911635920208987 13.205968319149434
Rh 12.604738660057293 7.686433023463671 13.297019342746763
Rh 14.83811320537478 13.449726194992984 12.452854959663222
Rh 11.236034021636838 11.236184954929733 15.461440433233127
Rh 11.235909078122663 8.635626782647014 15.381015583708166
Rh 13.458250163229405 12.604819185887692 14.613854356404433
Rh 15.570919778668582 11.235849839772838 13.746997333242804
Rh 13.445325273405698 11.236099598357512 12.374878091856717
Rh 13.915470115803219 6.919703340291919 11.098832517783592
Rh 14.837595121943462 9.022031721753521 12.453262271453283
Rh 13.45792628989748 9.867330719904933 14.613895203802137
Rh 14.848934436429209 13.422940786096305 9.75773656525786
Rh 12.595877922704442 9.063851961771373 11.047450028231543
Rh 13.457596152710538 9.862564761272171 7.531815925792659
Rh 11.236296656786617 11.235866233565211 6.697004904399602
Rh 14.84836530046561 9.048756882509403 9.758030025692767
Rh 13.398805248039649 11.235978857858903 9.676882795006712
Rh 15.566907445881903 11.235670357838718 8.399068252176866
Rh 15.661259250630756 11.235787290340017 11.078636384067327
