51
Energy = -305.2090594 eV
Rh 9.050092905933244 9.982886186206128 7.272316072462541
Rh 10.020966497936021 12.037248156504528 6.1356452515444335
Rh 11.533736333887665 9.945040556140805 6.835953039696331
Rh 7.742739951158154 12.116821155782764 8.072934562650985
Rh 8.39069174059108 10.19349544646802 9.696171045603208
Rh 10.524395914755523 8.693919636145575 8.982162099661336
Rh 10.352245108154717 14.14262200441906 7.659134401519789
Rh 10.1133811117123 11.942647954719375 8.741647667797292
Rh 6.976095221302239 12.209541784201093 10.520322355427178
Rh 12.280129237521713 12.43877726349055 7.325859996010236
Rh 8.765373640163714 14.010480008777682 9.724269774298433
Rh 12.989027229590604 8.240694692681028 8.42901124065794
Rh 9.505517163500304 8.42322793845788 11.326653711421864
Rh 13.824132371681106 7.345594490379731 10.664813143905489
Rh 10.432562925597901 10.85371118635435 11.111431208655452
Rh 14.010623071702982 10.4058697312084 7.407622370699184
Rh 7.241134090293898 14.599492275968442 11.804435468302087
Rh 7.990044817128529 10.313057660913044 12.294093917716921
Rh 11.210551282114114 13.265108301116454 10.834386538092863
Rh 10.427858944422082 15.909758570895342 9.496253219768509
Rh 12.174558581846243 10.53121302231911 9.258279071677892
Rh 12.506524497472798 14.330704703855824 9.131191211428844
Rh 6.65435357954272 12.346623510057686 13.1670104183325
Rh 14.128749478513402 12.300309715751817 9.117580936077212
Rh 8.890467463732284 12.717197545721664 11.994751187302068
Rh 14.53787138690014 9.780092627763107 9.93175170321161
Rh 9.769937287349778 15.15673537362895 11.96295408338288
Rh 13.12618627865493 11.645187903075445 11.416466669222265
Rh 8.524383735099255 14.096788837542167 14.0640488441164
Rh 12.227338228347634 15.709033741172938 11.333803734353745
Rh 14.463067492276643 13.942171492452212 10.992891043849449
Rh 8.820276252150364 11.51241443899972 14.456016801379949
Rh 12.136629125737201 9.022598303304466 11.412273475168892
Rh 10.37280906201143 9.568676227446243 13.40130230192635
Rh 11.02511373328564 12.265134251304676 13.298832584126295
Rh 15.781257999410174 11.589722309533819 11.16889110675949
Rh 11.528005288058187 7.278217022050275 13.112926769894212
Rh 10.978211398436166 14.67782972023827 14.312923502071232
Rh 15.912983480998326 8.584666240817638 11.553332247254257
Rh 12.864058494669099 13.999660889370313 12.951032098186642
Rh 14.861349421136671 12.629279059708868 13.314247878452994
Rh 10.000243438528992 13.16154178203103 16.035060539585285
Rh 10.986166237850458 10.848953655237784 15.540302102091438
Rh 13.100819143465456 10.686920837342424 13.800438502506013
Rh 13.928601972082987 8.27913250623539 13.124732973313094
Rh 12.632902542685937 12.849931824702608 15.368601176626015
Rh 12.252496319311357 8.683986170313354 15.119083101010784
Rh 15.602251274763423 10.191485236993069 13.420634873359779
Rh 14.838090361942308 11.457928785687159 15.558575886370653
Rh 13.036147237241279 10.381340374319585 16.912264704330205
Rh 14.783000963618745 8.890738205204459 15.522018586086755
