52
Energy = -311.83905425 eV
Rh 14.671962999849024 13.048354951067854 13.129007517061654
Rh 12.817145592503383 14.709873808794374 14.170039748368662
Rh 15.265948786128943 11.016240075181454 11.62998301023161
Rh 13.440636195475317 12.44490370382283 15.336723259418974
Rh 13.975653530129984 15.330451576083517 11.983618773857437
Rh 14.95599638430883 13.43112896427669 10.544905120153317
Rh 14.595849394656021 10.489502604159751 14.061257858617957
Rh 11.33708669806053 15.662587651643543 12.27785278645363
Rh 12.2871290842099 12.632107540361421 12.985111833758632
Rh 13.12001467436843 11.688026308169688 10.55524968683728
Rh 10.881575847144486 12.598060713942676 15.33416465849361
Rh 13.893223606706883 15.466276319611888 9.16027437283928
Rh 15.286829523178504 11.240787196240872 9.031712209727225
Rh 11.582992156662577 16.452238964956088 9.894361798226479
Rh 14.879208124283885 8.515087366706393 12.306337272034451
Rh 13.619071105663373 13.023362494763862 8.233657250240926
Rh 12.114756048181398 10.302617235247764 15.081746984334904
Rh 12.332356424444656 14.087716182142653 10.596719374520452
Rh 9.977007255597037 13.865671418374642 13.212230878902197
Rh 13.06142717498023 8.106208397313841 14.015409602206075
Rh 11.289895167731101 11.983589269760447 8.768709382934075
Rh 13.974065800357664 9.219210406021958 10.012449061549535
Rh 12.684220894026657 10.078781966071883 12.502957722481435
Rh 11.570274438469113 14.585918868535135 8.105504990309468
Rh 13.078558283641271 10.425740676211726 7.930679208076628
Rh 10.499749379774494 12.259999192277322 11.114366051388838
Rh 11.417613442836728 9.809254346808437 10.200221924085062
Rh 11.442080178616182 12.40817829633467 6.3866188970445394
Rh 10.283921046168107 11.023654324510781 13.320599201883338
Rh 10.951189981861784 8.063344650231084 15.449093060251046
Rh 12.460234994785637 7.626355151353768 11.356605365614685
Rh 8.378212846048253 12.435781486671354 14.716132667115675
Rh 9.780226430390547 14.455439541176201 10.057704722349595
Rh 11.921137793699929 7.957384937672305 8.701184129806757
Rh 11.008093802567956 9.703544027475534 6.752691160102866
Rh 10.64378168843257 8.490588230592378 12.967275155073287
Rh 9.515775661973622 10.222269859609836 15.551328270350322
Rh 9.408979823212178 13.344170746482996 7.731270210699507
Rh 8.150174627198819 12.409201760905221 12.14895874798033
Rh 9.43716053706654 10.250167815292844 8.574458552241545
Rh 8.198094014006532 12.23799117056112 9.64980508573567
Rh 9.096777809071588 9.96154096857639 11.247556672571957
Rh 8.585435747234893 8.046891869032605 14.405373675233266
Rh 7.7232019342428835 10.231789063076592 13.513298193698546
Rh 9.944132673128623 7.542268779862854 10.374039167488124
Rh 9.398533639629008 6.408204364091543 12.527084531861837
Rh 8.95358913698092 11.31161450439979 6.370498837983229
Rh 9.500328282351381 7.845975815143254 7.882626453328904
Rh 7.024484303321854 10.689365565091931 8.10610937341067
Rh 7.600476829160028 8.110113559011154 11.975605033165762
Rh 6.643927167149771 10.516672512179879 11.015956114792136
Rh 7.625766209303154 8.630712883445364 9.50558129829835
