55
Energy = -329.41617588 eV
Rh 15.065644267401337 14.52635332642538 9.044123755900458
Rh 12.597244484665357 14.215630904920054 8.457954849626482
Rh 13.561399425478264 12.523345835250606 10.030409245414578
Rh 15.775921949231666 11.776797807355958 9.319384353206944
Rh 15.12740077848491 16.77804859352216 10.519598576372445
Rh 12.884663687263375 15.782273039116063 10.459280080177592
Rh 17.07294587051138 13.554290140115844 10.493521446340182
Rh 11.069190057644548 12.418788819909448 9.710622619282491
Rh 10.644875702105077 14.86657913173134 10.023823392454904
Rh 14.41223543171021 10.190338071151961 10.907037111757568
Rh 8.699187976785245 14.242674950183913 11.292607199638518
Rh 17.159697142483676 15.87454946182643 9.400401471236197
Rh 16.960857021794215 15.783054354818125 11.951502445574247
Rh 12.856443725267699 8.737902434114908 12.389688172009755
Rh 16.509270053368155 11.363078548014885 11.744841159550203
Rh 11.040320603216143 16.095010912469085 12.272078209815742
Rh 14.853837323030914 14.3280080912613 11.572170248765836
Rh 12.020862117721329 10.877286615518353 11.494199388637773
Rh 12.110981969154878 13.70627608908426 11.877434669760108
Rh 9.857847668896502 14.05798538916802 13.438517010339327
Rh 17.390327865165457 9.143104884940726 12.546145036606495
Rh 9.726018455894653 12.009642347031303 11.880820268797892
Rh 10.455318144891772 9.865554613771065 13.266031046357037
Rh 14.087854986014928 12.119338683736851 12.775793665215485
Rh 17.753304455605512 13.30478610948651 15.572950859994615
Rh 17.379590030562188 13.48500529118891 12.994021934373901
Rh 15.693843909193431 17.332195808876484 13.592522538808902
Rh 9.120153733065733 11.854627131954265 14.514303242199759
Rh 17.24365016275613 15.491732543785549 14.452634552618152
Rh 15.029183991883958 9.649596968485554 13.393121578332119
Rh 12.675590394473252 9.95284579733145 14.582155183800316
Rh 13.600058089177583 12.473799533241875 15.390385847721895
Rh 12.347642150064061 14.52700445740998 14.368013919161532
Rh 14.892313936256263 14.296912841080212 14.188803450760687
Rh 11.901437071396613 18.030234306900393 13.662943642219885
Rh 18.33870756934441 11.267939036724446 13.615571351364078
Rh 11.59167019122445 12.062054254217733 13.802712765350934
Rh 13.667961378314207 16.27457206579585 12.87544493519125
Rh 16.016405044124415 11.875130779501088 14.50640948104226
Rh 11.223387404904292 18.23961918146474 16.260164834037646
Rh 9.135319600864422 14.21617083212818 15.810949698260497
Rh 10.366169849276485 16.301098877240626 14.740845783001243
Rh 11.381633015789976 14.879831819071457 16.779985270192235
Rh 14.798136335519153 10.207153817450902 16.011680079613093
Rh 13.031156775998829 16.709419478854223 15.475581886224
Rh 17.00555972643527 9.53280882266027 15.002531432005673
Rh 12.555030678431878 10.667905564449406 17.05843497295202
Rh 10.952411931466106 12.445497011242255 16.213589915337824
Rh 15.460598145236848 13.619912569673511 16.74791485659255
Rh 15.36064383129859 16.11065524608996 15.903117276741867
Rh 9.49953277973649 16.562267572763613 17.136638695851225
Rh 12.991225636757436 13.131954804756544 17.725413032920915
Rh 14.926012339717685 11.550448885984366 18.098172128095804
Rh 13.709818045297753 15.545961411199054 17.670261395256222
Rh 11.754402126902024 16.90784117281175 18.32763507639625
