55
Energy = -329.85188738 eV
Rh 14.575830133562173 11.762475187961147 8.352415335077698
Rh 15.443779259735122 14.020365311551897 8.390016107940925
Rh 9.775808268963821 11.8287263629893 9.708835374639625
Rh 12.244789707696132 12.03329522365875 9.10328276307553
Rh 16.477398270689438 10.97127035626414 9.89477091720423
Rh 10.880942001852695 14.030139824327875 10.124647939421482
Rh 13.398272745152743 14.658565285817266 9.77516379875579
Rh 15.941661680063808 15.369239963842581 10.416829646567141
Rh 15.106661475963413 12.963886877860764 10.786731050187957
Rh 17.54387709418177 13.41495744583631 9.965599312018927
Rh 11.709112507793025 9.698992568858827 10.317481021330352
Rh 11.650199033026748 16.414044835786942 10.234816148807175
Rh 9.091691226072244 13.191223743858929 11.89405409199328
Rh 12.538519264730752 12.677627827104422 11.455878867515374
Rh 14.063850897936604 16.80345651019858 11.169031441077506
Rh 13.991464033560638 10.584694504703467 10.554144119261414
Rh 16.4257743686725 16.924108579375538 12.30201893632224
Rh 12.040770617497195 16.464467159159305 12.662470115989693
Rh 9.729000145190014 15.756749058944058 11.872382890266756
Rh 9.705112032366452 11.948975258811723 14.206424716721479
Rh 12.19195654428826 11.736263531199063 13.803089842579855
Rh 10.540559963480192 11.09253149797843 11.893746078688462
Rh 17.272467794822266 12.130455243009745 12.117594996982382
Rh 14.589830245362553 11.682408343541082 13.015619868392246
Rh 16.48367141224425 14.465520684775484 12.763179251643416
Rh 13.942556463769094 14.416455974580796 12.819847584570791
Rh 13.33004440524685 8.989895092361108 12.308462078409521
Rh 15.934932290760337 9.839237523288062 12.11421158742177
Rh 11.166840827923538 14.033960725496476 13.190218959984389
Rh 16.5117995555581 12.623171512129046 14.585919810782316
Rh 17.74445118504269 10.348449989110506 13.812357887180124
Rh 12.352160804456153 17.89293165225128 14.838250596050713
Rh 14.375549997477302 16.93284755132935 13.66696642158029
Rh 11.181709153513461 9.445451589678415 13.712170417046512
Rh 11.35248130232302 13.063535295845707 15.884896305944448
Rh 15.387357316352702 8.346699778598369 13.943070745574417
Rh 13.54198765320024 9.780579707327313 14.748440784049208
Rh 13.996788355753665 13.096963969134574 15.109624796658892
Rh 7.922699801842017 14.83683427949453 13.29878597206776
Rh 11.549223281094328 10.56248411612299 16.09247319096683
Rh 15.075414536997707 17.62436451599646 15.898094273924663
Rh 12.574473338736539 15.319131367826191 14.98858426232081
Rh 15.791506637179701 13.322466245927252 17.027061622524656
Rh 15.89765933690263 10.288952710599025 15.427794633554965
Rh 10.103299615469473 16.66650071206863 14.33559111737651
Rh 9.462587712110144 14.4399212797836 15.11734355674295
Rh 15.60471144920991 15.144774783043358 15.053635540041297
Rh 13.906300294734498 11.327212686705357 16.906420751537603
Rh 11.823324388987025 12.157362890571251 18.130537215193602
Rh 13.01825754097625 16.70928953033896 17.042440286280257
Rh 16.32150090649211 11.077678318914204 17.649329986336106
Rh 13.290305215860286 14.062024719382052 17.47948799883889
Rh 10.938497899091352 15.169639577546754 17.171076138895334
Rh 10.622182508650104 17.564389011802245 16.681733006579172
Rh 15.233678035581589 15.659634241528988 17.552230375301384
