55
Energy = -326.12858554 eV
Rh 7.7239424854637715 10.582201397909008 13.04939803998967
Rh 13.23917153430052 15.659926170886262 14.32993106315665
Rh 14.38047287846641 13.758320019505721 10.643776556772364
Rh 11.719130231430023 13.54732118659463 14.113860525868297
Rh 10.52078341526231 16.30713839505823 10.721576964534767
Rh 8.804655915912237 15.282073971202848 14.070249543688126
Rh 18.497939521690792 13.398737477758456 9.674798183224476
Rh 13.383985587173033 11.695148741352277 15.157791408213793
Rh 10.952925156919486 11.674827504037399 15.83796100308914
Rh 18.110351704598337 11.209411760367397 8.410437109446521
Rh 12.21267057187531 9.91008667630899 11.168364083348786
Rh 8.32272839248095 11.19367844001782 15.515322607326887
Rh 7.978193946583785 12.664436707721482 11.33236214071715
Rh 18.00491568507778 9.203781467519212 12.513544931498418
Rh 12.244489001882926 9.458906220066813 15.910976147271155
Rh 10.263727231504314 11.562127359106139 10.73434020188125
Rh 14.095561721655262 10.768376542474442 12.816290223615551
Rh 7.482541162025191 13.122244989948737 13.838829523578116
Rh 9.8606654019372 9.389214639623024 11.9603984389106
Rh 9.759851292662397 12.014207725839455 13.36499488534848
Rh 14.732400482650823 9.804550069719935 16.036280001159405
Rh 16.102100687912 12.66640147241442 9.088497695876688
Rh 9.568125907571766 9.274090023279964 14.418522258975026
Rh 8.055343972480669 16.85893600425575 10.10885540693739
Rh 8.900717475984697 14.570739712660968 9.734705159865968
Rh 12.82984393585721 13.914903524716129 16.327877331785455
Rh 12.381177322966781 12.413473581870143 11.797605958619204
Rh 15.87270761623653 10.126851257348841 8.839399215451863
Rh 15.724688615051022 9.456977239928223 11.364770624973426
Rh 9.923831824528826 9.606690515899814 16.854619513846654
Rh 16.00536067409299 9.616008572965692 14.005651157613887
Rh 11.716930864351655 10.328965229700252 13.627974442569336
Rh 9.326316265679258 13.518006562087056 15.674116263913076
Rh 17.5606294104569 11.530537205931344 13.454765609519061
Rh 16.146278237455547 11.922676928947716 11.473422227827237
Rh 18.452353818377482 11.23771838040299 10.974788994169282
Rh 18.94361752614961 13.366208810279753 12.296078351521913
Rh 16.856449041761657 14.345175950494168 11.28779864619822
Rh 11.40940331682278 13.813236488183977 9.850200615720825
Rh 15.176720510341216 14.5489523389732 15.588858892672288
Rh 14.986505350218009 15.653435036365625 12.333991249329348
Rh 14.37805978887039 13.402330184069541 13.391447160535922
Rh 8.801280857518853 12.312688266757277 8.892037465193159
Rh 17.829360385514654 9.031168069982375 9.939372397723526
Rh 8.02004853128051 10.27551730371922 10.494442912620249
Rh 15.799144950430243 12.080715505265378 15.196795101108584
Rh 11.040017378673834 16.393318750266502 13.304960981666785
Rh 10.962335026531733 15.559992763174222 15.709071614275182
Rh 9.46161911147821 17.498689631086194 15.004931637340091
Rh 8.834363467176168 17.307701723631176 12.453847160297927
Rh 14.03567327235288 11.191772559693785 10.091992746394387
Rh 12.562132864989431 15.076881447908864 11.786233926314754
Rh 10.089032723305083 14.203962941797531 12.103314197534644
Rh 16.86065652578445 13.99211313348515 13.815366649874084
Rh 7.512211008038483 15.112587007227999 11.92834443688696
