52
Energy = -310.83967549 eV
Rh 11.859467582946097 11.849978526919712 15.22588835714211
Rh 12.162298162255825 13.524551893589539 17.208675093902688
Rh 15.256444646051142 9.425667227038817 13.55545168966539
Rh 14.145157778628812 13.52223376301622 15.72117435081661
Rh 11.968865277492457 6.785666352397585 13.991121783923635
Rh 12.514924797562184 9.387322861123007 14.344638393397423
Rh 14.191801198514144 11.456790530113611 14.408439322269368
Rh 9.673288040276509 10.568651660755041 15.419922001354234
Rh 9.914681152252982 13.042804322281704 16.2438715954743
Rh 9.996550287374594 8.42393637760525 14.16075226051448
Rh 13.79714795521132 7.7815855331885855 12.495972175761706
Rh 12.302501222230271 12.96832581711888 12.856776026597698
Rh 12.3853531546221 6.0225382891215675 11.393902148815783
Rh 11.93522907299534 14.507132223968204 14.89135696713725
Rh 9.999465775651945 6.381254333525529 12.414813435120909
Rh 14.880328453513949 13.77046793478111 13.348577124631467
Rh 13.134277184501032 10.563935440076483 12.025869928667651
Rh 11.393331643795864 8.57040490805587 12.073714310372957
Rh 7.875599257314769 12.284190360958801 14.927616976614821
Rh 8.235925144176603 10.31870916941527 13.277488098258127
Rh 15.660908267807127 11.576784127576781 12.234455044902745
Rh 15.211088624893197 9.389575422489958 10.896462690725697
Rh 10.641378647738657 10.957104336593023 13.035828240029046
Rh 9.714081241171376 13.495137186182037 13.733839102794496
Rh 8.90965394733613 8.518744380926714 11.588875216788193
Rh 13.018705954800092 8.215801938454497 10.08704999790635
Rh 10.895356197501581 10.462553601088803 10.43012331791927
Rh 15.819542460180212 11.698850822504722 9.627288345752197
Rh 8.265413397490207 10.833605838903543 10.753110874091096
Rh 13.321274418847759 15.501188036400306 12.75538224428826
Rh 10.635901460180106 7.312354479254844 9.950963308817942
Rh 10.04097961764962 12.745995439335168 11.225175970028198
Rh 13.802509022042832 12.765816078723006 10.821429979637122
Rh 10.75971050370909 15.677271339961711 12.969969318262136
Rh 13.521490740853077 10.577734604350796 9.304628174720003
Rh 16.101763471629415 13.869308356874562 11.09755249743328
Rh 7.638990649331622 12.669815086579383 12.347273666342971
Rh 11.486057370116342 9.28440031271994 8.256946439938515
Rh 9.032076641664963 9.095285014638588 9.048480939250128
Rh 11.843549183480206 14.719982438162047 10.884239334739613
Rh 11.72609619875342 12.596893311921963 9.28617443430988
Rh 14.222841601442116 15.224157542843383 10.138781232395411
Rh 8.804319387559852 14.903177152883856 11.627023978705031
Rh 12.425629064059736 11.376169334126928 7.103420005811555
Rh 9.518129600388793 11.509652429779635 8.403212091299126
Rh 7.8630114206496895 13.147933605304342 9.753452261533564
Rh 14.08483330835455 13.082642633622118 8.276998148759064
Rh 9.843528684731567 14.6797383034384 9.293237951337705
Rh 12.400099701290205 15.018706922857314 8.385963604013526
Rh 10.982332308622563 13.306160425496614 6.923831982603679
Rh 8.549588976993313 13.667319735552377 7.379703571461644
Rh 10.38015521049924 15.712320186788727 7.084755688415831
