52
Energy = -311.94928448 eV
Rh 9.121596917869791 10.27201119657225 15.324379626235743
Rh 11.724130854917387 10.598788129349987 15.649849116836009
Rh 10.32018456002313 12.770182380160254 15.938516529898019
Rh 6.881083081734555 10.612740628107515 14.175623020872703
Rh 13.19113805935645 8.567025119910216 15.255018195569715
Rh 10.701204009231057 8.487949736484785 14.312321693212255
Rh 8.220367889640592 12.85126356637957 14.491941458333834
Rh 8.660011143707049 9.125432017648125 12.96254961414971
Rh 12.513089064373819 13.0551408406236 14.538957965295443
Rh 13.912924921321759 10.855614346766782 14.266725276650202
Rh 10.431819104238944 11.616130864737265 13.716863068591753
Rh 6.170941474687495 12.777361808640237 12.931629728316727
Rh 6.3705753292123575 10.212128957710375 11.56057070613949
Rh 12.549459852144913 6.864712698753355 13.317323768401085
Rh 10.347230499413953 14.29048051796196 13.764496153845373
Rh 12.494986465369584 9.30403750475829 12.767592905164756
Rh 14.888553315303128 8.562985995787066 13.294296017255373
Rh 10.72917833337556 7.85046411167312 11.606863300236514
Rh 8.315275973424471 11.59219141238525 12.182123599728055
Rh 10.522446353244646 10.344891908879173 11.453651755936578
Rh 8.190773724132457 14.237383389252239 12.226829261514675
Rh 8.4165670640947 9.12693283415203 10.434894509042067
Rh 14.617568365067706 13.092224314397315 13.031924128237563
Rh 12.572834043371152 11.794014865188004 12.266285820233621
Rh 6.776736488485937 12.786825902092374 10.452218128114401
Rh 13.777058509810281 7.543100248155464 11.167737385243306
Rh 15.500704087551771 10.796532583420431 12.172588311884999
Rh 16.21454790723324 8.572884338686062 11.110676041036015
Rh 13.629628145769626 10.166990786978452 10.619214687923206
Rh 6.769166005938836 10.610460266757128 9.02859650689084
Rh 12.308560746104142 8.478008510371117 9.315057569294918
Rh 10.41035376104283 12.957711514499131 11.414720251117158
Rh 10.188790832524964 9.295941444270714 8.723011694164105
Rh 9.04450490412346 11.579216631393187 9.625041009072799
Rh 14.818993816190478 8.371111236389288 8.955969101348082
Rh 16.137641500484346 12.897339696816479 10.828539906992004
Rh 7.536464653673255 12.937273060897022 7.991825207187746
Rh 12.530311219742355 14.442793162597386 12.145878178642123
Rh 11.621862386968647 11.466342668415974 9.404114216285047
Rh 13.679631090450785 12.847666546744394 10.211705813516573
Rh 8.941266451873588 14.250681461534393 9.678670941292939
Rh 15.898648251628492 10.678998302737146 9.582371477647568
Rh 10.255569153791196 15.573118700158643 11.45816947531692
Rh 14.785086455802961 15.040471218163205 11.11675967365947
Rh 13.697970888371765 10.555331394569764 8.041937814281166
Rh 8.813780064731557 10.79262236376994 7.194178595198939
Rh 11.58976286806627 14.345241679156926 9.524163385831365
Rh 10.174679533785582 12.986335293703295 7.704616390419424
Rh 15.226861483730735 12.706620779731873 8.233407769828796
Rh 11.390271199746612 10.850297618012565 6.875537383224167
Rh 13.930759799226689 14.962496516377874 8.778823958920439
Rh 12.735415402363461 12.973273444471582 7.587951308058697
