51
Energy = -305.14115068 eV
Rh 8.532148942863511 9.806719131332056 8.6922519218929
Rh 7.0931042613968085 10.431904382501372 10.742601448479347
Rh 7.277622962325039 8.030725883768957 10.062905377981995
Rh 9.534578359310311 11.180897668260464 6.841231164415627
Rh 9.340461349709 8.54647287389656 6.65961625741903
Rh 6.9528809016392055 12.919798882569102 11.266645174375249
Rh 8.94957480779926 6.713305603463694 11.34535816751861
Rh 7.6332152942859075 12.263820346020491 8.633607113405633
Rh 9.522124260084567 7.384149407481693 8.92385120027212
Rh 8.063766854780125 8.844068304797183 12.726740741573941
Rh 8.279131387459172 11.371346767508227 12.904986985549419
Rh 9.794823135156166 9.239667326025986 10.95214532372415
Rh 11.863804256497533 12.213578837160979 6.813827837386596
Rh 8.704800673579923 14.379726947772415 10.10837197276322
Rh 11.671365396782805 9.586287869231512 6.887562162624279
Rh 9.943490066972604 9.938079526289737 14.304589361145071
Rh 12.95375370413659 5.914455005805794 8.977774356725654
Rh 7.645888831644392 13.769199318485496 13.636682744922165
Rh 11.425814637689749 6.5209604252480595 10.88958592456527
Rh 11.451948207276956 7.072643884861931 7.3218876828228145
Rh 7.206687734723161 15.483265860594786 11.858413359468022
Rh 10.369161979013532 7.643033157725529 13.155693604959458
Rh 13.093706160354433 10.800620999243314 10.63239550816189
Rh 11.113797186220282 15.291922680040921 9.690083427779204
Rh 9.827739149739665 13.604437511360006 12.344110347204724
Rh 15.430503228044984 10.940244271573611 11.94836413393234
Rh 13.814639055011643 13.026903620841882 11.933169277875015
Rh 13.344822409168486 10.89147165223795 13.372438311873914
Rh 15.007889945961661 12.359564417394711 9.747548092577215
Rh 15.21205384356315 9.70891605345228 9.678144952251209
Rh 12.155200321495617 14.967070267465003 12.09976452938752
Rh 12.334164616651684 8.770915302478445 14.470664561242227
Rh 11.656629477109165 12.924597574766352 10.528603250656568
Rh 14.621068393689361 8.673097669184745 12.80253960767656
Rh 11.855401702788187 11.116000433058522 15.465465029279393
Rh 12.019110240949336 13.036599365048316 13.82124268976402
Rh 10.922880010671074 11.114962533201263 12.33082422094879
Rh 13.036001036505704 13.576215169507641 8.623069216163143
Rh 9.737602917087901 16.060366795574037 11.803452641958
Rh 13.57147374549168 10.911379287588927 8.13956706093176
Rh 9.68858131839924 12.52769614557992 14.749397840992543
Rh 14.006007660376772 7.6114134101554285 10.561520063566975
Rh 10.607778514170633 15.180800799382336 14.168051942587365
Rh 12.939758800882572 6.659596526691961 13.007953313268013
Rh 13.874662195582578 8.310259860454408 7.995683982228849
Rh 8.340470853473269 16.1683485602969 14.032366685569023
Rh 12.20574011852699 8.881234468766683 11.94052574971887
Rh 11.818824392632251 8.500598994374013 9.348172854103742
Rh 10.091345063461745 13.247797980130361 8.353369970163193
Rh 9.221350304698074 11.83098544621347 10.508549348920383
Rh 11.053295919636453 10.86452138060724 9.009278092698617
