55
Energy = -327.91614905 eV
Rh 8.489098051589053 10.255939388635769 14.863108125132527
Rh 10.20057945014776 7.971590311270016 11.055489847797803
Rh 8.730990484842522 10.177230764648233 11.98306663351126
Rh 10.277422665243574 8.63884769785132 13.662491710067519
Rh 8.176754114286647 12.484651693484397 13.03200154469228
Rh 12.472684726688433 7.926266226797859 15.043592129426989
Rh 10.209184900802908 10.196296027486815 9.38045438803329
Rh 12.489046891451514 7.826759537211639 12.400119260572263
Rh 11.078707240875424 10.108899804501844 15.99392227690533
Rh 10.313587376948211 11.314628474051466 13.733998250262442
Rh 9.972130061033587 12.492038781714728 15.983218205930447
Rh 11.210381696840326 10.143631456667178 11.701360476778056
Rh 12.489034354915578 8.664939419120136 9.861380218873677
Rh 8.449906869345865 14.564086093873707 14.846817715003592
Rh 9.927486856140563 12.492992574570739 10.894848892063825
Rh 12.48303687269034 10.132483564265561 13.913003285865921
Rh 8.721226826181544 14.815487596943582 11.969893308355015
Rh 10.334844077342142 13.729507968400691 13.639267110690662
Rh 12.506411953289858 10.232485699658618 7.6777741103495165
Rh 14.781505251745148 7.978080259864152 11.058893435803368
Rh 10.938822216754696 12.487198844717339 8.239071027951725
Rh 14.68713762423261 8.642658976472038 13.67576054993078
Rh 13.90168637883075 10.098030817642861 15.989658772412474
Rh 12.505078943093341 11.923313193047784 17.193674773234935
Rh 12.488911436664205 11.28568881278374 9.87636148713962
Rh 13.754790937356534 10.138239935320964 11.703131521718985
Rh 12.473255114966861 12.705005373822651 14.936421743395707
Rh 10.223250390335808 14.808890692788504 9.308125651698955
Rh 11.099628000553066 14.867053746716651 15.909016102037382
Rh 12.487344732627891 12.521205530880499 12.304481227609697
Rh 10.26411470302816 16.360565460220798 13.653840395415719
Rh 11.204311139115532 14.87858328047312 11.594471237088284
Rh 14.788485411745924 10.197386070418075 9.39671286093385
Rh 14.654939073381112 11.316681395594246 13.733769351734795
Rh 12.49152075601006 13.693837314173049 9.816469613349172
Rh 10.14324018984637 17.022449356354162 11.027252436992612
Rh 12.483561686636637 15.016817666218014 13.770138346526352
Rh 14.061399435787509 12.484052824178795 8.25361125786913
Rh 16.234296374684014 10.176866779733276 11.981679071621812
Rh 14.984161324212797 12.48942298309225 15.991085958350864
Rh 16.47088848878746 10.271120820478197 14.891223157028554
Rh 15.03943899192054 12.493204342705175 10.898207038240143
Rh 12.50219423007038 14.717394910643643 7.621386337170887
Rh 13.847960933831894 14.857071192097665 15.91834459710696
Rh 14.634728671797534 13.731180362618744 13.64810901780682
Rh 12.478755335823461 17.07891156529504 15.070265457385277
Rh 13.767442777955845 14.877927557136948 11.598809938704878
Rh 14.78431767307349 14.803131726369944 9.328681141257201
Rh 12.49229975728408 16.344846610023573 9.851327517379332
Rh 14.707427795395635 16.35644467340455 13.664590489065661
Rh 16.792199282636854 12.481558463870096 13.037379446019317
Rh 16.521060373449327 14.528311033688155 14.875241753111506
Rh 12.489921772517697 17.1801911857786 12.351260925989864
Rh 14.840343763691692 17.016960545459433 11.0356903570778
Rh 16.249911059500057 14.803800114763082 11.96289601352763
