5
Energy = -21.54828379 eV
Rh 11.002704524023544 10.29721642881015 9.895968855532546
Rh 9.521912587051155 8.746841824603921 8.204097169365538
Rh 8.86506357591389 9.34743739522889 10.459742832798035
Rh 9.131775773394368 11.107039679941398 8.571863605200923
Rh 8.21722345051991 7.2610356865061405 9.588407580134826
