51
Energy = -305.75437063 eV
Rh 8.747277377821645 9.610899297811978 15.717601133674194
Rh 13.04531182502428 8.190159414105622 7.241118411658315
Rh 9.742541774212832 13.547684306944738 10.544423978898104
Rh 9.901289790251393 6.920347216458078 11.07479657157116
Rh 13.86593843088708 7.869553739642017 12.29364130340769
Rh 13.230457774024048 12.10922860275474 12.93158250616205
Rh 7.212145840440476 13.901466607794196 10.90274400163119
Rh 13.714480263228436 14.48993000898694 12.252301985837958
Rh 7.763482024808801 7.587824762369438 12.432435953021631
Rh 9.011873876645982 13.65165084743731 6.763056290999838
Rh 7.26533717547701 10.081501556270482 8.961202219494487
Rh 9.546379308004914 9.360996605830966 10.07063593128945
Rh 10.977720987425599 9.697707849249525 7.140647444481921
Rh 8.793508469679658 11.000696898375349 7.053051044248409
Rh 9.770309415250233 9.089980083353868 12.735460711516161
Rh 11.850424246666417 8.843012571115937 10.954966226696277
Rh 9.153386635136394 7.3633424083567265 14.555202362124511
Rh 11.471196648435704 7.206484354112439 13.15456081892494
Rh 11.179522256522354 7.534345567820214 8.78837376482576
Rh 8.20354416734733 11.377008217229418 10.979492163274205
Rh 14.11073914440916 10.22088769058259 11.27570201133117
Rh 10.694287280108673 11.207814026314043 11.602755903916846
Rh 8.739775858713731 12.977080381983248 12.91847827218086
Rh 11.12544023266309 12.185415928820902 6.441294172523892
Rh 5.836536503316999 11.80620302766851 10.079429981302022
Rh 12.39205334071865 6.309785964434457 10.834213641415758
Rh 11.06748680157518 8.945621230048657 15.125747657673637
Rh 6.5080652848361 9.627013000557776 11.612571587322954
Rh 15.000513343994466 11.570471114303896 9.30135813229899
Rh 7.640602158244765 7.7046162188755805 9.995098068113762
Rh 8.851136011896362 8.46038325453716 7.734795344027641
Rh 12.762854219840106 10.225265863181495 8.921064924969684
Rh 8.6594012734658 15.100317110873887 8.904649918076109
Rh 10.456339021702775 11.512344412802241 8.93908389056217
Rh 6.261177482543718 12.172702633375287 12.593199062348523
Rh 12.574546570710385 12.367369204138214 10.434458402643537
Rh 15.164760756431999 9.557784479617586 7.941531799459982
Rh 7.989320294553389 10.65970525363381 13.631630245202917
Rh 10.486371223351979 11.391357634789694 14.177480841562154
Rh 11.186699151314903 13.57727687956823 12.680628076785466
Rh 15.375990450966055 12.495490443135422 11.635544998329166
Rh 14.348097262643574 14.038202500809733 9.808230374842955
Rh 12.425173450835121 9.817771492134046 13.27121013159636
Rh 7.856783269877039 12.676895229555816 8.71757848504125
Rh 13.110742028763744 12.691321514083622 7.955532552445165
Rh 13.994196549833548 8.076930579204054 9.69357891797685
Rh 10.948084150565535 14.027485837377329 8.314441853392882
Rh 11.938121082027022 14.895948458965945 10.498613499489467
Rh 13.254878442207945 10.63932825034589 6.398771411985605
Rh 9.163104475570744 6.104133297674807 8.743092202238042
Rh 6.763629797890037 8.656291373450628 14.403974018070427
