50
Energy = -297.70396762 eV
Rh 8.576642629352474 9.385298535891787 5.124475428233892
Rh 10.213829574283796 11.374745498224833 5.3494820233493785
Rh 9.176107451458147 13.811198116819652 6.2002347677703105
Rh 11.058964255295212 8.823371071002795 5.630561324010815
Rh 7.020255161816324 9.216756732912515 7.163567962905294
Rh 9.032939833187731 7.3228178346207 6.891210176903584
Rh 7.872081367925909 11.605555700057325 6.517576048687217
Rh 9.62851869350569 9.690689984490778 7.478699635880045
Rh 10.158748801139346 12.137448287464581 7.788744897814472
Rh 11.179639209862355 5.563271153526252 7.484462724356079
Rh 10.628182388664579 14.309445718805636 9.02206467401351
Rh 12.297413792290747 10.85026325615007 6.828326266810998
Rh 13.407689222689275 8.62757012286448 6.958153323912751
Rh 11.767625197197162 13.343597033233 6.304269661611222
Rh 7.985234693913158 13.44340066874941 8.467166897106775
Rh 12.144681541391185 6.242174685860219 9.889645298551914
Rh 11.32554362847532 7.921419812352355 8.088912632043481
Rh 5.885007295560178 9.20234064785815 9.484775434010674
Rh 5.790564346315947 11.419400570224727 8.11231412694417
Rh 8.323846349442224 8.325483219464946 9.270994676130123
Rh 9.614094642901438 6.132289843721837 9.274010306586256
Rh 7.97449050428136 10.908859550419598 9.05113296687043
Rh 14.272349932576827 10.625301000160576 8.387269435932073
Rh 12.675780412576795 12.649189498050454 8.677447563611683
Rh 11.401709515306171 10.411721507997843 9.275443682444402
Rh 10.719915194277679 8.318195232721472 10.645646282132265
Rh 7.2193789821598795 6.272513396196701 10.127670669765209
Rh 13.286166486739797 8.60305243940277 9.627897574261674
Rh 11.71560649554215 6.650366035237604 12.355322966369378
Rh 7.370196976883809 13.436538435503419 10.852446237005916
Rh 11.893049779530456 13.237444864957105 11.023748856065591
Rh 9.665884857636009 12.281166035187072 10.332642854903158
Rh 9.889116977552385 8.548066924885447 13.057354472268965
Rh 9.129752049530653 6.4291177836043625 11.79816313464603
Rh 6.567667439278753 11.034262295212018 11.303841987650275
Rh 9.690768029351585 14.387173044222292 11.718007654698647
Rh 8.812488426152365 9.989355157775426 11.230275498801534
Rh 13.45120130943817 11.095696284358228 10.771583492428839
Rh 11.135417821517317 10.738305425791289 11.882577517777449
Rh 6.910523851060365 8.345855442181207 11.611948190102341
Rh 12.9281149613048 8.908775660677124 12.114153080664991
Rh 8.65379768135386 12.17065813671486 12.750658276027101
Rh 10.020112760303538 6.345014565011069 14.309278110994905
Rh 11.086377048289492 12.877328777652789 13.395009201275615
Rh 7.689972503185553 7.339095431042804 13.774856782502583
Rh 7.697161184998612 9.947057864694822 13.593775171247335
Rh 12.765815092727305 10.8435236666052 13.764206309459933
Rh 10.195754244366857 10.754246652784264 14.368312698953213
Rh 11.911220313247808 8.456129804714855 14.419397433564201
Rh 9.20662714890529 8.671478648685767 15.474311666684516
