54
Energy = -323.33643173 eV
Rh 13.578752415083216 8.938091164016583 12.814579530307272
Rh 14.412919575614213 11.31130746239106 11.933219988061293
Rh 12.173085002123702 9.00745195993174 15.35411803548668
Rh 15.739972362932594 11.08470523625591 9.734848816072272
Rh 13.364126697297834 11.00271702049148 14.3509953374845
Rh 14.275721922410442 9.020088268459086 10.228492624008014
Rh 15.232844688270191 13.404322401137014 10.220528374569286
Rh 13.718403128547417 14.344803258860969 12.138558161253421
Rh 11.344849924162684 7.409497948891372 13.390932284214397
Rh 13.426854761806977 6.848519127383541 9.007494393392884
Rh 12.261492653395708 7.5203296151047505 11.097982597801956
Rh 14.256710279629448 8.799977571095061 7.496544899942734
Rh 10.804352496334653 11.248556093923877 15.329723784289508
Rh 13.56459446703004 11.005061899513816 8.574206872213466
Rh 11.154193314261242 13.79834170524957 14.525400041164872
Rh 9.633413940031742 8.789271742503626 15.024217709850397
Rh 13.634310201333873 13.4669001232073 7.933241651686929
Rh 12.191406124112904 10.385193728999797 10.948834558205082
Rh 11.050673278219787 14.63098063071346 12.063317985136168
Rh 11.151307114722638 9.930248143773406 13.173681509916635
Rh 14.195270647753645 11.49887209283345 6.230641923798103
Rh 12.521183968316167 15.256662846549714 9.965908687617736
Rh 12.172971654056807 12.401808601651233 12.680399750797623
Rh 12.845190002158397 12.793978411257783 10.233806421544262
Rh 11.899326569439943 8.942151248128608 8.929518165538259
Rh 10.611864071818133 6.798569801160801 9.084852141802445
Rh 12.045819581858455 7.4112417502670205 6.872923093090174
Rh 9.839820412269495 8.732481521099254 7.4921906058622
Rh 12.210673871253869 9.929151902688828 6.439876903234477
Rh 8.90227841150776 13.042924888104418 15.4968461974113
Rh 8.799538032579644 6.79851846999983 13.563330496016688
Rh 9.590552672732668 12.127619895481311 13.119805631135806
Rh 9.726278158738625 7.511365002997144 11.374034054262928
Rh 10.410011574920146 12.333016627468474 10.681328929453473
Rh 8.993702533425642 14.944039353712933 13.794993743748675
Rh 8.733226740775075 9.625403752420684 12.623983712137617
Rh 7.120187160353437 8.539330427852747 14.398371765871163
Rh 11.824271322558312 12.484988616071332 6.308745219807093
Rh 10.778154908035283 11.252992819219877 8.27931836985562
Rh 9.735103904293345 9.823175868665754 10.23087382956275
Rh 9.902611536501563 15.402371150332163 9.936072483338538
Rh 8.032398742686205 10.846520254285407 14.865071574203954
Rh 11.08166451803804 13.815246503248106 8.424171502000593
Rh 7.139677724421978 7.949461421264406 11.735263217463903
Rh 8.166145216527616 8.132207672237081 9.36321240986809
Rh 7.182048086856152 12.835151561332037 13.376257463924206
Rh 9.817570323288765 10.624128633408914 5.880239283452851
Rh 8.519783991158185 13.958789741436828 11.555555878024686
Rh 7.8035259845894265 11.527071170727108 10.94983569612173
Rh 8.56406320408643 13.226432499772962 9.13881393396597
Rh 6.3643731126300045 10.418106080516905 12.765092819720216
Rh 9.284352427871337 12.876640685569509 6.779631151601436
Rh 8.144827739963768 10.723049147407412 8.36372496222189
Rh 6.341309693337975 9.734111853733499 10.08552729198801
