53
Energy = -318.20874606 eV
Rh 8.092849579921637 14.411786918244603 10.04597222030307
Rh 10.25809193071001 10.909189613704346 13.0966974887566
Rh 14.088890876823235 7.39446490425265 7.735673091252625
Rh 11.686259037073746 14.117216321467716 12.204404944954028
Rh 9.823907465004671 12.132873106527 15.979898786774068
Rh 6.437626592435122 11.294329234092052 12.590260593506718
Rh 9.933114596065662 8.529281617207303 12.113044570188052
Rh 11.835176177473341 6.849947336748368 12.328167421763832
Rh 14.193820486003107 7.826515587663687 12.123793850030582
Rh 6.53350088709702 13.753096993156362 8.122902088470344
Rh 10.78586908410055 7.215548451457201 10.030979226592388
Rh 13.57717160401509 10.675896023261735 14.339231836653338
Rh 11.135735677582225 10.052810233420406 15.259512427142017
Rh 8.250749306500019 8.07286404177306 10.253879159832044
Rh 14.994449896204403 8.72313291992882 9.845950891793697
Rh 9.89178887326934 14.207276326522095 14.28315661989343
Rh 9.316467827706408 13.299291403669248 11.977214412935153
Rh 8.50039145144753 10.80324391381934 11.249990642360157
Rh 14.064522801802761 12.457777703268505 7.846925988377184
Rh 11.93007319289653 13.94387562087754 7.683305028160965
Rh 10.107848703027488 9.731635507112163 9.612446525958022
Rh 8.243898351606942 12.297102820110515 14.056828020366453
Rh 11.233506407747559 11.820365173491682 10.898549869803883
Rh 11.725480839614928 6.185167011051931 7.970639360302379
Rh 15.190358087958032 8.690443629524967 14.252515670519246
Rh 6.602695876647255 12.328260554509658 10.229495134555604
Rh 11.70783462232174 12.472396423857449 14.268522226657488
Rh 10.207963119758796 7.846947593853908 14.418706603479945
Rh 9.904623471826289 10.146890233692323 6.955773929976973
Rh 5.777132243773018 11.227515662547914 8.144118193935515
Rh 10.398180811864126 12.515084717982779 6.316121639541827
Rh 7.928255102023586 12.012392280686646 6.936725127182024
Rh 8.548834188246033 9.88886560228425 14.701452794183414
Rh 12.692283845489643 8.242337730228614 14.315615098159276
Rh 12.476584676344563 9.053877393919661 9.60540042857195
Rh 9.482182429468539 7.804966132374907 7.90590510830541
Rh 12.25215100685891 10.769326626114434 5.938947114707985
Rh 13.298556963236264 6.688106779765507 10.072211757357541
Rh 9.207049918186382 12.139434206775915 9.116747632417356
Rh 13.406424099793915 12.243013705901998 12.325784786126684
Rh 14.01571567686698 9.960842250812108 7.693260462739951
Rh 7.817962739729703 9.82322398782123 8.378104809294914
Rh 12.403304179745893 9.699637358306429 12.150551237256728
Rh 11.88986079657554 8.514947151291423 7.1272088666460975
Rh 10.618005028337517 14.200260213203348 9.814455094307082
Rh 15.032838313997017 10.252097271707273 12.165909160055449
Rh 11.72260854755163 11.419397170302394 8.33296175283427
Rh 6.91605529213872 13.781111477352457 12.359388617231861
Rh 13.082284878715699 13.510519906494922 10.041692472450631
Rh 7.4671223117211385 8.914170454390813 12.64171292797757
Rh 13.973625065587555 11.12339081886776 10.032798255467918
Rh 6.226328413858511 9.754419294885201 10.4504097625916
Rh 9.138593971083962 14.298041913552678 7.684685595135097
