6
Energy = -26.85237321 eV
Rh 8.551447816639827 11.416385627256355 8.908494416654225
Rh 9.632620993181835 6.797970640923409 10.004175432772165
Rh 10.630041268497616 8.76003971659758 10.859835916216902
Rh 8.231574162935111 8.535900650545239 9.261789620679831
Rh 10.294489630417777 9.79361522076192 8.75805525398982
Rh 7.781498898786773 9.817760914374261 7.329322130145848
