6
Energy = -26.55258487 eV
Rh 11.579612997458918 14.185873797592684 10.946683329230485
Rh 11.002154722876876 12.081343794142068 10.770219877306776
Rh 12.032912487134512 9.989484881815297 10.092407028229616
Rh 10.42387199473761 8.288311144764384 10.874350413577307
Rh 10.587003218308302 10.276110813592588 12.34263110214378
Rh 9.459818491437192 10.360258893180164 9.985165947990644
