6
Energy = -27.11961764 eV
Rh 8.803807 10.8366074267817 8.52771094827383
Rh 10.71066035811502 9.437499252125976 8.541140309164218
Rh 9.98076953303928 7.155807401961083 8.532341595754476
Rh 8.803807 8.799621265044182 10.148167241888423
Rh 7.626844466960719 7.155807401961083 8.532341595754476
Rh 6.896953641884979 9.437499252125976 8.541140309164218
