6
Energy = -26.68109878 eV
Rh 8.531989700724392 10.36140173657776 8.616440567821934
Rh 7.932327494656012 8.688661131663654 7.17639033135195
Rh 9.375576082751753 6.96358203730057 6.414002326731039
Rh 8.895791246994012 7.019814557671551 8.733649222357835
Rh 7.794006517544951 10.209579434081355 10.871103921096267
Rh 9.488227553266583 8.707122641705736 10.161314885321326
