6
Energy = -27.87928336 eV
Rh 7.298178162375238 7.895969073807446 9.11650136568849
Rh 9.646113841691362 8.24991364813615 8.276004342627662
Rh 7.880023929763351 10.1214967408221 8.217841064743366
Rh 10.28532636163169 10.67669462781266 8.849193659684392
Rh 8.795294003922745 9.374851202500231 10.500767198153959
Rh 11.223140520373045 8.80382445456705 10.160729146288629
