6
Energy = -25.41370662 eV
Rh 11.689549075278904 8.303434269091985 13.733341784176574
Rh 11.441299602095036 9.8474697334272 12.122548049017869
Rh 12.73183506881185 10.890746349451076 10.474222951157403
Rh 9.984769281286008 11.646754394428992 12.02549725152732
Rh 11.237784962669979 12.675031477136754 10.36096738543466
Rh 11.019965506126137 14.72418432118986 9.479438485329547
