6
Energy = -27.48438935 eV
Rh 10.700169247440856 7.007078994400358 8.171180165294862
Rh 8.375191913831243 7.224111813513402 7.674819614069127
Rh 9.672282829409662 9.15832279388211 8.282929064936889
Rh 7.295199217941354 9.522138550672897 7.394486574505135
Rh 6.697470437828898 7.86792040951062 9.232431763963348
Rh 7.988187526869344 9.805732828878792 9.828482227881047
