7
Energy = -33.11424427 eV
Rh 8.212196484260119 11.293155717436509 8.652863971611007
Rh 8.799240482047914 9.15613939792763 9.823014089893615
Rh 10.115724974416182 10.020798358154105 7.796776822977108
Rh 7.74827855743781 9.185140963823182 7.459410413225769
Rh 9.358737874937841 6.765923116160342 10.340579366504423
Rh 9.59092505912966 7.5023544934932405 7.996456814096739
Rh 7.312000893243158 7.2135922784776865 9.068002847164172
