7
Energy = -32.63088911 eV
Rh 10.782417465132559 11.879321810452446 12.041742274436153
Rh 12.193031522170553 12.820867568528932 10.263214927161249
Rh 10.559244051277775 9.303748411643213 8.842121013197282
Rh 9.781660012570079 9.67914089157695 11.176911137492716
Rh 10.203137324056481 11.611925802362782 9.514446834808862
Rh 12.139662601942165 10.304243860667786 10.491290667098722
Rh 10.037876871440789 10.121794090778854 13.48750424176634
