7
Energy = -31.5217091 eV
Rh 9.854283744409898 7.9371827087862785 10.858138711292064
Rh 8.6945013 10.073688294531443 10.688979468478893
Rh 7.534718855590103 7.9371827087862785 10.858138711292064
Rh 7.534718855590103 9.451819891213724 6.530863888707936
Rh 8.6945013 8.6945013 8.6945013
Rh 9.854283744409898 9.451819891213724 6.530863888707936
Rh 8.6945013 7.315314305468556 6.700023131521111
