7
Energy = -31.99803952 eV
Rh 11.304305684353142 11.040638302848649 11.56715263930007
Rh 12.606173852730729 10.74094151912843 9.38911076317631
Rh 10.851225418402862 9.005319313528211 10.13815579407749
Rh 10.105470530028324 11.376291413129007 9.387791677829407
Rh 11.005616091631591 9.696328681082713 7.768667509437762
Rh 8.993651682742597 10.168412877806633 11.23313912888952
Rh 7.223434012592417 9.569189257387594 12.372667814189782
