7
Energy = -32.99548772 eV
Rh 7.788953814168262 6.115039911093753 7.9029898061262625
Rh 5.99641642786267 7.122480030503803 6.46683904244005
Rh 8.332385197023413 7.992725421583402 6.184279382256334
Rh 9.47833916944445 7.999129454832789 8.519773593626836
Rh 6.931085327075361 8.545715858736964 8.314407547939586
Rh 7.8261703628888135 7.134736910924713 10.193156677729828
Rh 8.68353185852217 10.127054569309712 7.455436106866367
