7
Energy = -33.82332396 eV
Rh 7.19170857685389 6.785677450508609 8.515827421880093
Rh 9.204468681911317 7.146873815853289 10.087241085245367
Rh 8.928745506372682 10.450396769391563 7.561828829845615
Rh 9.307475750019043 7.926185407016697 7.657595099249017
Rh 10.277006190493267 9.409431748408434 9.498908806641989
Rh 7.738229552308443 9.11948803587735 9.390590464954384
Rh 7.0196518775379015 8.829232772944307 6.955294292183668
