7
Energy = -32.68554194 eV
Rh 8.458981930854021 9.669420461564895 6.843225820138588
Rh 7.215421321845299 9.702540736855951 9.01683009392656
Rh 9.542684282375388 10.74636860512129 8.833001906721782
Rh 10.441702489618047 8.55232767865444 7.879534978564742
Rh 9.201834334775155 8.59251885362765 10.054169789671562
Rh 8.115805751889157 7.512415454054047 8.064047488302114
Rh 9.820074460528511 8.069714786838352 12.168145136861204
