7
Energy = -32.97997525 eV
Rh 10.157480599818083 7.525649268484137 9.684453979261281
Rh 7.932075911227672 6.503155103962286 9.859560260670563
Rh 10.001515696633152 9.448008008831685 8.155783442905227
Rh 8.504174977922416 7.41650262983295 7.672338816914613
Rh 7.977661486768321 8.98181598159949 9.5954030835418
Rh 7.63627998230363 9.634023425728268 7.080185661779694
Rh 8.466201029109543 11.25903597182624 8.721442588666843
