8
Energy = -36.36196288 eV
Rh 6.197786089229737 7.110838598800436 7.697359204366219
Rh 10.799637376398083 6.94740396453659 7.3971722412553245
Rh 8.44724848806671 7.165044538040654 7.043235797516037
Rh 9.70850145501957 8.07394233948519 9.148594560660818
Rh 10.279890173152655 9.11506346821988 11.178087565181855
Rh 9.145905674131733 10.524106576480706 9.69130656084422
Rh 7.378532766969428 8.955428601251985 8.543214625239111
Rh 7.230545430687873 11.296219366840216 8.489076898591827
