8
Energy = -37.72721296 eV
Rh 8.273871931316657 10.512599268379589 12.72013359980994
Rh 12.806065189643505 10.852425245207566 11.223681843115187
Rh 13.065844485060252 11.72657253144239 8.994036459010102
Rh 10.577160133838671 11.102068094180217 12.761068082559287
Rh 12.456711593070633 13.75547983206319 10.010017636613703
Rh 10.85411648031356 12.010394494926565 10.482832883070305
Rh 11.395761105090488 8.966559933306574 11.819255952617763
Rh 9.500045512864643 9.983681049958063 10.728549370297172
