8
Energy = -38.82433881 eV
Rh 7.466414806870671 10.505282670815973 9.924307424980082
Rh 7.673552702216223 8.565982613376848 8.335265524880425
Rh 8.748329329159091 10.109175463774564 6.825956276212002
Rh 10.827334141076836 8.994331801200541 7.136987605547103
Rh 9.883603607310198 7.458355355113952 8.759128876292884
Rh 7.8226232626937335 6.405966223705725 9.618829037099603
Rh 9.768011812518363 10.014906435494542 9.154103307031747
Rh 8.532967616659027 8.443263199776515 10.858276502142592
