8
Energy = -38.99005115 eV
Rh 7.370662113201623 9.113776964056246 8.226050828768006
Rh 9.218819266389284 10.72465529821945 8.547057627174116
Rh 8.258185891629777 10.217053527741324 6.218799687688626
Rh 8.325181170327554 9.410017512788475 10.56904413622849
Rh 10.594707999942614 8.865640284229677 9.761835040751754
Rh 8.746398626714686 7.26406244913111 9.358352437596071
Rh 9.678833678395334 8.590228023478206 7.391231614323438
Rh 9.544670114629726 7.552024801585821 11.66508748869995
