8
Energy = -38.49355077 eV
Rh 6.8707491063896615 9.478488992343486 10.152801282011218
Rh 8.58329610401175 8.846843326409243 6.4013389683984325
Rh 7.5812267490128455 7.196953696769923 10.117041921268678
Rh 8.616530107649297 6.762424481875838 7.837669061471708
Rh 8.990121637854548 9.054173023063578 9.0025352081604
Rh 6.566728935917953 8.310585819233784 8.013804730933114
Rh 7.0500035141749615 7.003507717016513 5.93256651637783
Rh 10.668071600578342 8.091262890810137 7.417287819881328
