8
Energy = -39.04613913 eV
Rh 8.926565974734629 7.087227344880856 8.519774492979952
Rh 6.367058222068945 6.697095176454931 8.511167890009908
Rh 9.72600458624824 8.730025707579951 6.8079217036285655
Rh 7.262140314763014 8.15563004585207 6.808487650694087
Rh 8.037055383229875 9.884880470506056 8.441418028184573
Rh 7.237020534982836 8.241165804023163 10.14922292561376
Rh 10.591594664077288 10.272582587412277 8.450539386612801
Rh 9.701369861302238 8.815026972397403 10.157285762741369
