8
Energy = -38.11961395 eV
Rh 9.311677220043588 10.883564795430068 10.596893548921877
Rh 8.744473935003901 8.627510011159037 10.342742085775813
Rh 9.077116250124144 6.356078054038878 9.43679874608336
Rh 9.265131703372901 10.198760993391625 8.356135595082122
Rh 6.8334733401094985 7.3233675655265476 9.421320872930012
Rh 9.048806930751814 9.500648537159362 6.0337852785079535
Rh 7.348381050216378 8.65220644699467 7.552179961737492
Rh 9.669291906784007 7.7439453710541155 7.62622353489156
