8
Energy = -37.48119896 eV
Rh 10.727777009329884 9.57374055681633 8.437957294027333
Rh 10.893269333617093 8.844173704393382 10.864772840532584
Rh 6.456412911468788 9.688659937858592 10.475118267967707
Rh 8.698676743773756 8.970993836836382 9.972283906813649
Rh 6.8308694503865635 9.021710818961909 8.252020331303138
Rh 9.021799262463468 8.32894948143207 7.2476724498546945
Rh 10.279393629546483 7.19939739836052 8.991900079607266
Rh 7.0192053794367855 8.390541753167899 5.982368391145667
