9
Energy = -44.43006154 eV
Rh 7.6503021433117535 9.660890134424694 7.0295018551938
Rh 9.71410515417302 8.56536934519343 7.906766042486475
Rh 7.625048364649056 7.129640401153783 7.939277291625311
Rh 9.819434259396003 6.295274687350634 8.95657673596749
Rh 8.434619641796486 11.854986010511796 7.394516725829703
Rh 7.960769421030349 6.857867024794168 10.460406014529893
Rh 7.788730789551385 9.146596724080851 9.467680815869885
Rh 9.653495420722182 10.74312591381448 9.094276224612074
Rh 10.008612644842833 8.381696553112368 10.425229734938982
