9
Energy = -45.00017839 eV
Rh 10.811797370760756 9.268405893849934 7.584678115758012
Rh 10.536148077592049 7.398689234210414 9.067086063714667
Rh 9.807279217568233 10.839204026060166 9.085449532377124
Rh 8.894919191326576 8.783145453974416 10.082723345888727
Rh 8.446434139972492 8.550213115007134 7.396060064961376
Rh 8.843402400003665 6.1269546530562025 7.988564337137506
Rh 7.589581621388542 10.623634848161876 8.176182141266708
Rh 7.069480276634825 7.320187009479834 9.121622395939236
Rh 6.478102292244881 9.511458256695175 9.960008780645751
