9
Energy = -45.56155551 eV
Rh 9.624212037594456 10.15046786116722 8.558190336255208
Rh 10.233704482555613 7.673850517361775 8.827678037688687
Rh 6.756264345482958 8.168274563913517 9.01454792712234
Rh 7.793458386197073 9.555595924029623 7.141976415222105
Rh 8.387807590344304 7.068277470215574 7.402766568217346
Rh 8.319676866663945 6.29882760385924 9.842568435419885
Rh 7.258238380195863 10.679309989948072 9.368217673976455
Rh 8.619202392377224 8.780470925607364 10.456231695986894
Rh 10.115413223531055 8.732902026407057 6.495799910110825
