9
Energy = -44.78731283 eV
Rh 6.79719320972052 7.033268428754759 6.776631563890642
Rh 6.241213140443774 9.485958806981726 6.932219569356228
Rh 6.609379670291871 8.159425285968759 9.046476559991868
Rh 8.628149347890323 8.78660536367628 6.538085497540473
Rh 8.795593281220896 6.9910583664019885 8.366597324278372
Rh 8.070365637996264 10.145928281038811 8.574685001452401
Rh 8.848849814701085 8.535911613389509 10.399263725793606
Rh 10.364486130056518 9.009923470338418 8.515883583312363
Rh 10.712069231296091 6.919219847067225 9.917456638001385
