9
Energy = -44.55974417 eV
Rh 8.375454829247335 7.524907641376096 4.940812994961183
Rh 6.342723363791063 8.54572646325319 6.126566313394807
Rh 7.948874514170984 6.172173313228191 7.042830213677947
Rh 6.224226137029904 6.227517206601657 5.166517304617244
Rh 5.248955296027196 6.503682871350071 7.356745700159207
Rh 6.647476592340028 5.8638005211042525 9.213390682657518
Rh 6.6114917965489735 8.316620269292736 8.664912747551304
Rh 8.684987447976525 8.620327540199034 7.18437856912823
Rh 8.824697277659034 7.134131428385819 9.212732728643727
