9
Energy = -45.61717166 eV
Rh 9.797607898418468 10.273974223438081 8.714101513929291
Rh 10.370011793400431 7.819606493720999 8.977551743639536
Rh 6.904117515350183 8.339220507910095 9.164452754330329
Rh 7.93041743740323 9.6842170697854 7.27796280930252
Rh 8.502658730278977 7.229880697922688 7.541222127353361
Rh 8.440664668769607 6.434951491569627 10.001406983548264
Rh 7.41095130780885 10.849163829797162 9.5278308167047
Rh 8.771167302345374 8.928874406570802 10.600702004883248
Rh 10.286343346224877 8.85405127928527 6.608709246308749
