5
Energy = -6.50889114 eV
Ag 11.850396776728237 12.472562042908251 12.614224827589448
Ag 12.125435437522315 10.030750013842805 8.050602496607112
Ag 11.470922765960196 10.740559750529872 10.47547183847551
Ag 9.683462075519033 10.905317149284206 12.448641294569315
Ag 13.116857513306062 13.506627967437044 14.658388717365376
