7
Energy = -11.19596130 eV
Ag 11.778335413692279 11.14479701629088 9.315374836838771
Ag 9.840223726622224 9.83748440067677 10.673891790990925
Ag 10.316253082055278 9.410003754395536 7.915298741373967
Ag 8.441354577892932 7.92334040437005 11.976037921762789
Ag 7.811668391988021 10.367560140986637 8.820019979777292
Ag 8.546350329837187 7.680345985249747 9.32864445215008
Ag 8.06144061173053 8.444669538232638 6.758708233536207
