53
Energy = -116.95529224 eV
Ag 18.224045854146937 14.808144250237808 13.65715452414649
Ag 18.007759633796677 14.84536326515581 10.81142639015269
Ag 18.531600962917533 11.964836205976441 13.397596345718704
Ag 16.66174830575529 12.966673086833467 15.290620278970358
Ag 16.622736856856346 16.848917761860445 12.244195278040788
Ag 17.958748271196026 11.89591064033457 10.613188217685087
Ag 17.109915071668908 10.227368639706407 15.14521947736999
Ag 16.234375143113773 13.289502196381473 12.372114498110921
Ag 15.635208870423144 15.42711191752556 14.413746308601581
Ag 16.024439274340722 13.532516782405388 9.382224247240766
Ag 14.769396824709572 11.027107929255779 16.57152949553105
Ag 16.381374035051344 10.323818159691418 12.470212522812096
Ag 13.895175721196377 16.6242212935659 16.236730711644206
Ag 14.038002915818776 17.633869933481503 13.201436604952415
Ag 15.52216424475579 10.673464380084376 9.806189042440215
Ag 14.034594987405928 12.244138530131789 7.939540567501661
Ag 14.305721346621512 11.811446630460418 13.826966666633073
Ag 15.864436601007275 16.342054667537806 9.563847784527521
Ag 12.635081529004815 9.236237181704798 16.83716161046456
Ag 14.082548659406795 13.696029510699688 16.071079250941622
Ag 13.80526605833839 12.494604063444118 11.010519350820084
Ag 14.320530543783917 15.204907442962895 11.693747308279566
Ag 14.62029225860905 8.988620222638646 14.576906263937166
Ag 11.587594274155778 17.619450368277736 14.987102513116287
Ag 12.827308055009725 15.289531921792205 14.068164934607514
Ag 13.506860401160122 14.839231165846208 8.99111075366618
Ag 13.298097150751687 17.356790172621075 10.285987252611111
Ag 13.694479693444386 9.648281580540196 11.907833138179814
Ag 12.530581230610917 7.47456568685615 13.30413438038648
Ag 11.742766492612338 12.768518843687813 14.350893447133048
Ag 11.970899983604399 10.000629401769944 14.213090845858533
Ag 11.98722373216615 11.959592995111946 16.97341377971699
Ag 11.570568310549557 14.102929782288998 11.822721118400095
Ag 9.855939162522603 10.307619990847385 16.142590052500307
Ag 9.949407129730702 15.388918637247977 14.357761313551435
Ag 10.743973825351109 7.709030959089862 15.454001185763703
Ag 11.553115134162633 12.8383138270921 9.058167600862665
Ag 11.241274155068393 11.33496036038031 11.77350381229192
Ag 11.290982896030052 16.896308387807686 12.24522785240915
Ag 11.568292331568387 14.845628743786111 16.587176534645767
Ag 12.670928950254945 10.233411398519802 9.412016109005965
Ag 10.876595084224133 8.692353663006223 11.311851946746527
Ag 9.299020329821941 12.871948941799069 13.084387559376626
Ag 10.813343046837899 15.595257277845027 9.690112214535601
Ag 9.409542766991457 13.04842547202539 16.035797695710038
Ag 9.296043327911446 9.154946054191171 13.592163480367098
Ag 8.751557078123938 15.379238095258437 11.805404458688008
Ag 9.06632257924824 13.111115125659998 10.201737745401381
Ag 7.37705229118345 14.31338326924422 14.416500383511956
Ag 9.912405327971566 10.546741846490283 9.309203198721418
Ag 8.284204165383457 10.6899069089707 11.579485300798074
Ag 7.643084114512252 11.277262438516752 14.534901053635991
Ag 6.812300275552736 13.090626420797074 11.944486921665463
