44
Energy = -95.31366566 eV
Ag 8.121273285458052 11.937508892829777 7.713282791016743
Ag 8.034155867291966 12.166313225433976 12.536306764137267
Ag 10.333909408585216 10.323103120996175 8.272103543602979
Ag 8.183406996051874 10.60969562057123 10.183902893824737
Ag 8.52405362687833 13.435854933687322 14.97310209433471
Ag 10.233180237483525 11.59312945817779 5.832631583875697
Ag 8.597164699364257 13.381206000452378 10.08065614134042
Ag 9.97318903091384 11.149763187885812 14.398340034351426
Ag 10.557741149712871 9.251317178193707 10.853980539216845
Ag 11.44734545059418 12.215005065187295 10.153055103880586
Ag 8.535037926614704 15.03428619362072 12.565386621036494
Ag 8.59984342932763 9.440785513219922 12.744040616285886
Ag 12.932272230330256 9.890364541214128 9.439814410782397
Ag 10.55257674357584 15.24922229223268 14.946392944413574
Ag 10.823125273289975 12.737315675914928 16.564128387412364
Ag 12.607083975562396 11.874562960762113 7.402701501286927
Ag 10.366694884530546 13.565764835098783 7.861477889591685
Ag 11.121901211048037 8.54103998099797 13.8048092594688
Ag 10.73220850997659 13.449954596398188 12.535155913118473
Ag 10.928742597726373 16.53205440716776 12.540756301904464
Ag 12.221230362440517 10.874822251684456 12.623694060509543
Ag 12.286360492880627 10.364502332052371 15.700417765076912
Ag 10.72135320096474 15.133627963962288 10.186393535148207
Ag 13.03691030404234 14.281986690411049 8.862292344532442
Ag 12.66651575381329 12.938146893609256 14.514337382638637
Ag 12.986267176476845 8.161254943679058 11.627937332927372
Ag 12.83785119130068 7.685491422343051 16.034028775450462
Ag 12.715598398333077 14.821439287164752 16.684204626083528
Ag 13.608333792518621 13.213857864041918 11.829743843368142
Ag 13.176362858105868 15.751794128615925 14.005386483766681
Ag 14.076527285466659 8.97889752814973 13.976474370170552
Ag 13.847863362847045 12.283650814707368 17.036983087707338
Ag 13.284587602343283 15.962169666234788 11.165892304353214
Ag 14.678676463908745 12.066025890641031 9.358679997820554
Ag 15.185361319330964 11.578368329529505 14.111634631378834
Ag 15.575942077742804 14.690033455425164 10.008566078842128
Ag 14.816430711007387 10.293953706474369 11.563984651432166
Ag 14.952508416988508 9.764700865228008 16.50645437761749
Ag 15.166802468524265 14.201165269905758 15.389783809149415
Ag 16.63456719116087 12.054033788454333 16.47415105252696
Ag 18.05029998951739 14.717523182864785 11.600717300496973
Ag 15.583447529954764 15.107467416096705 12.784393032292861
Ag 17.514841606621044 13.372704442829532 14.107470444506573
Ag 16.382364897006763 12.536045173465192 11.656264364934781
