8
Energy = -13.43898404 eV
Ag 13.268142695844636 10.391460599743299 9.313948182950266
Ag 8.595122439947993 8.343093960654647 11.163755365355748
Ag 11.084526321091944 9.081117803732297 10.17098444765179
Ag 8.650079768819374 11.977405374695742 7.141012357060467
Ag 10.896810184044684 11.158931919524466 8.345155509825771
Ag 8.406600842168505 10.434856614238234 9.347354099006788
Ag 6.355673738060804 9.796453629194415 10.971278983046007
Ag 10.717558679868988 6.75867415939582 11.489698148789454
