5
Energy = -6.01555632 eV
Ag 14.05490506943961 10.732815430630852 12.789057438274176
Ag 16.248227255503334 9.445742936062299 13.366474817071271
Ag 8.039022527804724 15.108095979330159 10.121735259300934
Ag 9.81756708562622 13.56628927332736 11.244578414258378
Ag 11.882738026787903 12.101226602561205 12.091395620061125
