16
Energy = -44.07034315 eV
Al 10.32325238045374 11.837296404616332 8.804157884811374
Al 11.143129162455477 10.24926852684655 10.80969408744578
Al 11.520975976130876 9.456678248461115 7.984321367516193
Al 9.214136464376217 10.71563962530369 6.62670164378684
Al 8.707066211985328 11.358887285123409 11.052522904471633
Al 11.37372729868418 7.80148616210196 10.449823485124691
Al 7.533109362914802 11.63291709117623 8.51265642864117
Al 9.419120148999763 8.267996308116446 6.249011806891256
Al 10.760000709631726 6.773479094903474 8.03855552459616
Al 9.075139971274313 9.075340356217678 9.074970333520515
Al 6.550568878621295 9.92212325976901 10.33982414761082
Al 9.150622325926964 6.2931758963500375 10.288850209077957
Al 8.831788955886605 8.659689410672808 11.736779924079519
Al 6.872274849021162 9.116693311650867 7.506315288259496
Al 7.975282433947573 6.569097484265424 7.754352395855604
Al 6.752847294855298 7.472879108081486 9.973811048983087
