16
Energy = -46.03929345 eV
Al 10.48688094227783 9.056687117995947 12.758666080015091
Al 9.382969254728707 11.287367404927291 10.959490556478364
Al 8.052826386311422 9.007969707822378 11.837575380246887
Al 11.96099727648257 10.20610935366644 10.985148618301443
Al 7.022523001302736 10.105626738894708 9.779731065927653
Al 9.585756098119264 6.731469682930688 11.329051389069631
Al 12.065793362317185 7.506598189633535 10.95889940330452
Al 8.783879378397256 11.55647397457626 8.20457940555802
Al 6.327017043418617 10.960298679593512 7.352493580036812
Al 11.24853364032054 11.278696161946359 8.80147934622755
Al 7.59433281640134 7.276489776990539 9.738888415932301
Al 12.245532422853248 8.616134620041437 8.593979142655034
Al 8.311509069474315 10.514339046146604 5.692560270198028
Al 9.790971650934896 8.906087442252893 9.636278697059215
Al 7.814122692822976 8.620012722764114 7.55216773873752
Al 10.41397258353749 9.452301694768542 6.931436315286029
