51
Energy = -111.10052795 eV
Ag 15.784678160661054 9.481351348564948 10.361971728082814
Ag 18.4452467981811 8.89709443925468 11.180197529136036
Ag 14.538180036299012 14.163361357545542 8.703652646447498
Ag 14.389701179548457 11.184269154794494 8.507317340032905
Ag 17.925852929970766 11.455659536725463 10.272087988902
Ag 12.305159751240495 9.934819924852995 7.019459398528273
Ag 17.309736238227405 14.06883035092636 9.555052064472612
Ag 12.261686459981133 12.749905981878086 7.519645547898291
Ag 13.285730616889007 8.71276305944994 9.382223006044102
Ag 16.486951807309403 7.912336109944448 12.80965563228795
Ag 15.398297127035805 12.42908783215395 10.756830092523888
Ag 11.781249262045282 15.321320932411977 8.645745843390811
Ag 16.836104056324828 10.653215790513206 12.760932490783633
Ag 10.361341308958036 8.558773898135675 8.75387663366541
Ag 12.532871031273567 13.298112131764315 10.428141551420891
Ag 17.314581051962993 13.404578236555999 12.501260455552758
Ag 9.677071358990046 11.050077258284585 7.5039575261053795
Ag 11.517183182295893 10.898746797925298 9.575199832475732
Ag 13.840352320709696 8.096094166618304 12.091795410540998
Ag 15.556845073407754 15.279033673622589 11.3334988477443
Ag 9.956023414110085 13.255861681868776 9.193122181005757
Ag 11.20947068524468 8.829612189584067 11.457974933158077
Ag 13.375115375269662 10.826819671589549 11.730863823642952
Ag 12.940803505961085 16.00694389458912 11.064220106379555
Ag 13.748262723747416 13.589844774009741 12.830083041181554
Ag 8.871129954954412 10.511838659332804 10.441668235362656
Ag 12.073716243854529 8.848167360303709 14.216029325658061
Ag 10.296038983941099 12.366874081277482 11.959447400144613
Ag 14.768883435979344 9.54774031696591 14.389959378694469
Ag 12.013757947497202 11.666614736352976 14.08865429972255
Ag 15.686233941286085 15.052654463425927 14.173004992676073
Ag 13.109787394155845 16.294115201952913 13.842142869132873
Ag 15.477356441902717 12.225872377283583 14.61292140526943
Ag 9.529119605667603 9.810166918028521 13.38753953129905
Ag 7.759997251147284 13.281366374293711 10.803924806038454
Ag 10.108747641661 15.257515823795838 11.30124180815133
Ag 11.222972130591447 17.759359338379507 12.22222315976213
Ag 11.085467062159324 14.315119408931297 13.923328981912457
Ag 10.539231120964411 10.23469352746393 16.20077733433741
Ag 7.320797400156724 11.53539248259403 12.867354125057469
Ag 9.318110828193678 12.275181693877924 14.712269787571204
Ag 13.39371586235968 11.053937616364953 16.323090084697263
Ag 13.501484152269212 13.954994511882774 15.63028941295886
Ag 8.117201827635876 14.420519084232145 13.259176522320645
Ag 11.182847896540604 12.986208939254869 16.784184301683972
Ag 11.456044515402104 15.857229167317607 16.234888956562102
Ag 9.597030692482578 16.64635775665249 14.089067874435736
Ag 7.647523509677231 10.2060161769656 15.474481341507227
Ag 8.8993798953527 14.723230838366693 16.064604425601036
Ag 8.55377427976502 12.184525231348813 17.38890740605791
Ag 6.711318170207876 12.955537240976788 15.272229285047842
