33
Energy = -69.54163218 eV
Ag 15.23997757807453 11.0068818961473 13.120443983855091
Ag 14.770700717320848 8.478104577996609 11.690928915429518
Ag 13.970625814661416 12.724372823135258 11.241971809520184
Ag 14.291275172990725 8.81653278790251 14.510980574734589
Ag 15.681102392331246 10.60376293368122 10.312255477550544
Ag 15.132206593810864 12.633762186400714 8.550391941810044
Ag 14.659745818895944 15.130668988951724 9.796652993911373
Ag 12.94947546372195 11.338138662631739 14.821608559955992
Ag 14.336588291750884 13.566191400221465 13.88574867876841
Ag 12.738171551435116 7.069864080150109 12.914600110195595
Ag 12.517536662795518 10.161325297801984 12.285331447661981
Ag 12.331969006718605 8.047867510059719 10.321001070545218
Ag 12.015252953748247 16.131895582905646 9.610084736716237
Ag 12.551615125187453 13.54689616636093 8.824717029113666
Ag 13.088608645496775 15.311548037993642 12.071264307906729
Ag 12.98638753766996 10.763733930032876 9.46878910310113
Ag 11.529013984600473 8.822769514367838 14.832242478301927
Ag 11.043655454007222 12.312815365986376 11.076331547687168
Ag 10.241685333097392 11.123513191538834 14.028879084865341
Ag 11.547973467409289 13.541414519532028 13.607254582756646
Ag 11.560857095414546 9.084081303756253 7.791305635667515
Ag 10.248751251053356 8.1965809662077 12.301139796490862
Ag 8.841601355352338 13.175325306274598 12.804559151074661
Ag 9.870001551473115 14.312821774587812 9.019449233195543
Ag 10.312528056464904 15.236176095022673 11.65744693042608
Ag 7.356064474586084 11.338315493931436 14.32378542692241
Ag 10.106271902388015 9.768262431965162 10.032434588764445
Ag 10.569564179756652 11.745001196884262 8.128354100621737
Ag 8.731589967419477 8.862397250409048 14.553290135569636
Ag 8.359584694876103 12.038389792361693 9.861887149948249
Ag 7.657444162449556 14.616543689709882 10.74781668874721
Ag 8.226995510987118 10.151960147674753 11.997975325580601
Ag 6.363390107986654 12.308102037019177 11.825728712753953
