54
Energy = -113.56901571 eV
Ag 15.009024323414131 17.284995687502263 9.130072340710855
Ag 16.10082529454483 11.824629009807461 13.177228337637091
Ag 10.671315308429342 16.091907262518266 7.984888002635706
Ag 15.040981509589896 16.245712080253057 13.982035432902384
Ag 10.975206437812737 9.882154556469144 12.764972690456911
Ag 17.230119812116254 16.138948392628205 15.959243705170703
Ag 11.933656010458824 10.455561523188841 10.156247960974914
Ag 9.467154765726276 14.05378959127924 12.995125264594801
Ag 14.03703859226162 18.86413091952127 13.948082504578615
Ag 9.735644093165208 11.94584833558223 11.213087912050716
Ag 9.00130616045415 11.518577670272073 13.925499779992242
Ag 11.265805883588538 15.382120139315441 17.436816480471
Ag 19.286044448335417 13.572796511266636 19.427744866382675
Ag 15.0782765715773 14.412173116031807 8.445129003427152
Ag 16.818405228043346 18.412442008741184 14.365175144530305
Ag 10.818578635349914 17.539386433206847 10.403716870841652
Ag 17.51979295270792 13.695293800151742 17.37950697240442
Ag 10.239697248676022 13.395847110035865 15.59305359857318
Ag 13.560840728385317 10.993545476553287 12.357581324500474
Ag 15.716311946802554 13.831087381123343 15.29479585388512
Ag 15.301679567332968 12.044322481438773 17.47075790557851
Ag 11.970083958190132 13.916883172192163 19.68872586747059
Ag 17.285648997745753 10.979676739933318 10.769230224710162
Ag 13.195404043545587 9.074529011648679 14.408782828408569
Ag 12.769165691184847 15.55846523498533 9.711173235137402
Ag 12.545493558817222 12.518724973500033 21.915803073034905
Ag 16.081354923401243 18.05872323733803 11.749507818412429
Ag 12.854439153935154 14.746052303791833 15.262636375872667
Ag 13.201196626423709 8.357624564663967 11.667269850743814
Ag 11.170864692913824 10.73763692193564 15.4761642947022
Ag 9.977748088440746 14.777704580490932 10.373008404793026
Ag 15.051417690793375 12.707844974477586 10.615686901939743
Ag 19.382392319096745 9.680434055016184 15.615151608585373
Ag 13.400512734685453 17.882906224093812 11.388938829266115
Ag 14.705007480962106 9.992684164698383 9.913669338656353
Ag 9.083899549031708 16.73565622077577 12.348413224135163
Ag 18.943800118039345 15.881933914180129 18.095535426379854
Ag 13.531957499208355 11.532002530268652 19.59936961410054
Ag 15.163301723336456 15.490699920763985 11.20598531237522
Ag 11.334352153867053 18.26281786938112 13.215920225405547
Ag 17.390294067084593 11.483228480200127 15.707910222764118
Ag 13.324862946768071 16.061562121668437 7.079997146922922
Ag 13.301197942354992 10.005040306791527 17.127603503028876
Ag 15.025374459560087 17.78884184993668 16.417748545221887
Ag 13.736927583106784 11.826520818991492 15.006802993470718
Ag 11.934814907409457 15.596065727576674 12.514575867320207
Ag 12.20917687606839 13.132811628129083 10.991741548435575
Ag 14.054426544164038 13.763460761965742 13.006738161899893
Ag 18.45340547716715 10.485140971518248 13.215292577959604
Ag 12.324722564832888 12.704554815171692 17.28545028691985
Ag 16.119512948068255 11.785464338818022 8.260534762516752
Ag 15.433017748947655 9.66105303784037 18.818091229070653
Ag 12.40222333144501 17.514432748155965 15.815383553268191
Ag 10.252898547111409 16.101185780608237 14.837924252733584
