20
Energy = -40.22046085 eV
Ag 8.88821396910716 10.329522111174663 6.992201724134819
Ag 10.268078370273857 12.241348643694081 8.460449959779387
Ag 11.510718410410153 9.780249949225768 7.814956739988469
Ag 12.926892940936632 11.813102228037355 9.193072316367227
Ag 11.466539054343897 13.976143459682385 10.32953972487333
Ag 10.79792558816346 7.317813387914475 9.478197087139804
Ag 7.517089071540734 11.548071089733735 9.182174941951942
Ag 9.46288356975652 9.720364397677564 9.689371604533644
Ag 14.14563312484854 13.535685509033259 11.01738664556364
Ag 12.352202799669636 9.337366725262719 10.433189280612737
Ag 9.30320998104941 12.372255152579283 11.104764304707372
Ag 12.363790364188318 6.900722287001193 11.847070571422455
Ag 10.056018841516792 8.416306483618332 12.08593175430254
Ag 7.820736717832153 10.171243325951341 11.905420352391973
Ag 14.524170367621373 10.731093582132324 11.396212162100861
Ag 12.114913503595899 11.84885875851411 11.982596394027167
Ag 12.475131170932855 9.360017967362003 13.204900068724829
Ag 10.45432338803904 13.680226799825299 13.19376194274701
Ag 10.048205662005856 10.794795005629066 13.527427873574352
Ag 7.862756526103081 12.484246557886554 13.520807972991678
