51
Energy = -111.46123331 eV
Ag 14.070979920481548 10.137388673705575 16.873673622483086
Ag 12.530695431216458 8.93078375761465 14.910848104816063
Ag 15.449468718157814 8.622965994417822 14.996653472317039
Ag 11.514505509347565 11.357468954261455 16.717062295978142
Ag 16.510576208207784 11.254136579399496 15.866407632793555
Ag 9.814580428016253 9.921604825091263 14.632343659669935
Ag 10.70226529116051 7.812041572733389 12.9068122606117
Ag 14.09676928613854 12.812760997895221 16.356318878728874
Ag 14.072864526452507 7.572686495939458 12.753908981571774
Ag 8.058943908242895 8.90735537614532 12.700250907022872
Ag 14.64235497352618 11.07326965171051 13.870555157893563
Ag 16.413316741848153 9.29448054909973 12.467989780537742
Ag 11.935148636224614 11.724070531211265 14.070274157412978
Ag 11.668493403179484 14.121732168377376 15.670391189416458
Ag 16.193403608272924 13.864948720204543 14.729531794013218
Ag 9.555357750775606 8.868228076587027 10.419986290761011
Ag 7.556823178126608 11.552235336771023 13.260738071838112
Ag 12.160310861610746 7.64038175798143 10.404894312013072
Ag 9.397518174870553 12.658532163077547 15.031501032910318
Ag 10.132253462097195 11.21306102460265 11.893152095532074
Ag 17.31285008959697 11.842258391962282 13.13422203747296
Ag 11.886872330720994 10.39818840292518 9.555482708835177
Ag 14.59095868804902 9.190488533755266 10.376383960573506
Ag 12.517088871514972 9.74544542136814 12.244701918042006
Ag 14.117960165622478 15.57242266750777 15.82769103341386
Ag 13.726955055067355 12.035877051797856 11.355000203726615
Ag 16.331690685917245 11.443025974303351 10.488721702669684
Ag 10.748371327667776 14.016826905608303 12.808387051426903
Ag 13.622053690599618 13.847715557506007 13.592253975977895
Ag 15.024642684828727 16.21483960562035 13.231690346293208
Ag 13.368878193985008 8.606855547335794 7.894924190384782
Ag 7.471163563350157 10.77242482379282 10.507692072627806
Ag 7.874164265491472 14.282849191175536 13.285349605850703
Ag 14.308783735679173 11.229363781777643 8.3736909801144
Ag 9.458890291693669 11.318312571866853 8.476163316020477
Ag 6.107472572051833 13.176847650441507 11.33478329012116
Ag 15.838522333683127 13.909677127759345 11.825510502430609
Ag 12.146608688160677 16.312342796849503 13.804143689785683
Ag 11.526830568431313 13.176872575898614 10.119172101518243
Ag 8.794090917565343 13.317867523496199 10.727755490981487
Ag 11.63744345532509 10.542275607957025 6.725925343697142
Ag 10.545954188529922 8.358811147084491 7.939389758899233
Ag 9.469507275329265 16.560434181387098 12.943097114872145
Ag 14.427465135459682 13.820712083441782 9.297793828351429
Ag 12.264646576847891 13.040408759132829 7.426066161438984
Ag 13.09883903152751 15.335748462817158 11.267702187564701
Ag 7.139657891884303 12.984917528071863 8.614832577568174
Ag 10.32325666617384 15.74402433356061 10.476254745097648
Ag 7.484750686442653 15.731819080661197 10.884198796963789
Ag 9.706157095679764 14.173623691032756 8.099158660365857
Ag 12.2790403787011 15.553252765075612 8.49555214896392
