55
Energy = -121.79228431 eV
Ag 12.501882884464976 12.792031772993257 9.791800333824504
Ag 14.854893734151158 14.206560865915632 10.439258644587879
Ag 15.468266653528108 16.649270693350093 9.246274114725017
Ag 11.14033412738044 17.506103616230156 11.334673444179899
Ag 16.76155863712868 18.62602462656801 10.729295629812297
Ag 12.737391056833264 15.780801955912816 9.575274095167272
Ag 14.90746591921042 11.53968692050982 11.062745807730083
Ag 17.332282077486344 13.33782783750471 11.446576927207479
Ag 15.930835626265008 16.32207638922341 12.042082965772398
Ag 17.042765085020914 10.821740207034555 12.799076238505652
Ag 14.865042714800358 9.01258679879355 12.516040879848905
Ag 12.558757426714932 18.446334000984148 13.601452127695481
Ag 10.635618549168365 14.733669762119616 11.238855067503366
Ag 13.097023242209715 15.802122414589077 12.368207447848464
Ag 18.29118099007128 16.102277326568647 10.763325587169389
Ag 13.893941664558707 18.20394141418047 11.035498801930034
Ag 12.534788204221668 13.014824809545427 12.549602506642291
Ag 15.307891739343793 13.949558869719125 13.302144665631198
Ag 19.216957828092013 12.504879741474356 13.451353604192779
Ag 14.42381347284837 11.405269893769955 13.843679487802385
Ag 10.212834542970326 11.93038627683436 11.24369460469601
Ag 9.87829632983427 13.404549194895786 13.607801615175983
Ag 15.475466137504219 19.19072242768269 13.225856085042416
Ag 12.446597856445583 10.29660938022814 11.772355064252794
Ag 18.29011259925299 15.117430649735214 13.406744930779865
Ag 10.71563175354763 16.128754249963848 13.928200501907227
Ag 18.08869749329208 17.929451342518842 13.1191001298402
Ag 12.046033593148808 12.044112449498162 15.251796633371038
Ag 15.697059783927646 9.448275952248745 15.22536979708629
Ag 10.291142132754022 10.53951954227695 13.70781044783414
Ag 17.18903461477646 12.00655001429125 15.312914988402216
Ag 9.303231941578616 12.22781801617137 16.083123315204446
Ag 8.33502448607718 14.977352439974075 15.183793415653188
Ag 12.757427223713014 9.223862032861799 14.485883977287784
Ag 10.742753164187114 14.583163993683264 16.41295834711778
Ag 14.15917060059177 19.267474022752847 15.771171967933235
Ag 14.679200294687487 16.83106112015463 14.493392600976422
Ag 12.340637552003091 17.023807879548812 16.21789928101403
Ag 13.55737888929254 10.185719713467115 17.113641179792747
Ag 14.674637441466334 12.674185980741145 16.320180811057085
Ag 10.80662719730492 9.869776174438645 16.466440773047342
Ag 13.125816887047572 14.568531099816358 14.910817957894196
Ag 19.22390691393639 16.79623479477074 15.417677277816841
Ag 16.255504921172452 14.954883799223758 15.733403605505488
Ag 18.952761513259816 14.076299649440545 15.95845656743706
Ag 16.868065226413407 18.244413340930592 15.647963288160051
Ag 13.139440879417263 14.645171108967265 17.780231390236857
Ag 11.665374485189892 12.237643042487532 17.983271379002645
Ag 12.86270024916199 17.028741399844286 19.059625400203412
Ag 17.658664686153077 16.17735452783034 17.734872663952206
Ag 15.011146126012138 17.11917082907457 17.383250296186855
Ag 16.27110767221475 10.654851248156215 17.681651861463138
Ag 14.407514606255033 12.39747177074649 19.050804987931148
Ag 17.025256366026134 13.338713915070308 17.93514701631479
Ag 15.394465144954781 15.153759641754448 19.28689040171376
