17
Energy = -90.95740168 eV
Co 7.666027340390532 7.310689210410153 11.274854775218097
Co 9.996130572910937 7.574016684325304 10.660621641263138
Co 8.446780729366788 6.822552798384443 9.16203905943662
Co 6.245252000745041 8.707741053143042 9.997525724995924
Co 8.515758140677441 9.236740082613881 10.349496447696323
Co 6.231402505399702 6.456146788513579 9.505944326031063
Co 9.971709096403446 8.561707065649339 8.52993700342599
Co 5.210524567464315 8.019941833597915 8.039256325696684
Co 7.90763043888939 7.356487928478007 5.162935463620846
Co 10.248421361058057 7.576082979796848 4.953377653945277
Co 9.376620196610995 6.917524873537772 6.926687179826401
Co 6.549253484079385 8.93850139676183 6.171750898025932
Co 8.974115311143116 9.144978739203168 6.181401845390722
Co 7.70952250146905 8.892505812858651 8.163052188385253
Co 11.225494067224876 8.60376046912652 6.656052466404242
Co 7.022264710794507 6.841459033218507 7.239645784341248
Co 5.81887614742277 10.154946422430596 8.141204388346273
