18
Energy = -96.44999957 eV
Co 12.030087127302927 7.54349858324411 7.301850290704738
Co 7.6991174953500625 9.252852241700669 11.109208693639427
Co 8.026498387277995 9.52247403255177 8.747742704383302
Co 8.340347906762569 11.257039473182456 10.243433103865955
Co 10.003625111315415 10.763082644904925 8.324770420336918
Co 13.726557152377888 9.571103075550877 10.379101532160298
Co 11.821321497811084 9.800846409484032 7.1638894174467795
Co 11.78099770781092 10.049543393824289 11.403378242613236
Co 9.097619306483843 12.831036992090018 11.994763552756652
Co 12.229841736432778 10.867435964309427 9.17100214014579
Co 9.01155617745046 11.859146484867145 13.961726691561267
Co 10.575733566230541 11.790637841299805 10.511379897626886
Co 9.892839196647648 9.29410056338861 10.168705391033981
Co 9.465970997431432 10.411287989608585 12.248718804588124
Co 11.159535808281277 11.850122489911453 12.806288204302763
Co 7.342407123460135 11.237343632632113 12.361325174649368
Co 12.034919247677339 8.57165359088083 9.320612859852169
Co 10.06793538016582 8.464879915141816 7.995691543557953
