16
Energy = -85.14432688 eV
Co 10.775407995605052 6.798877197958695 10.789191974608157
Co 7.215327124771011 8.71026671764279 10.440478967342987
Co 6.83880399557896 10.549715890489955 6.841564057959882
Co 8.799467765582628 10.267799452947779 9.632036894774696
Co 8.792048578789261 7.152418688423899 9.5638124460802
Co 10.538797688208454 11.10556317930944 8.37604010733119
Co 9.1090563313425 10.125483714296047 6.821099976293188
Co 6.573774858183349 7.021838414851785 9.122217706457151
Co 10.726517398058451 6.554309589161189 8.48991782120069
Co 10.178536886758568 8.734916265077247 8.377431216206878
Co 7.6511785483571595 8.791434246389205 8.107767993199069
Co 11.079739921422059 9.842760258979743 10.30930436411543
Co 9.46462143720078 8.572734961600327 11.247493018634632
Co 12.132053997309226 8.072518094938937 9.51827596668949
Co 8.30198554967714 11.878911618893278 8.035471383043705
Co 6.587320016352124 10.584284931475626 9.100838627462071
