19
Energy = -103.76786794 eV
Co 9.195164535293765 8.130205979216987 12.185290339455054
Co 11.61557824011242 8.601357811451845 11.97782207294059
Co 8.018331195277575 10.266846323757301 12.169291379155075
Co 11.897355400096185 11.009425701720012 11.859167920323133
Co 9.677736860671775 12.05479137645422 11.990491985861963
Co 11.978000213784366 9.670567480826454 9.78324060095363
Co 10.805836772832516 11.808386731965841 9.780359242753876
Co 10.329647698694462 7.8724069378130155 9.978253174066758
Co 8.399394960137435 11.33394363619261 9.976805072328448
Co 8.109680385151973 8.925451738643629 10.101128244477987
Co 9.357043160606194 11.879524082833024 7.748148455349197
Co 7.707523431535311 10.087789109348726 7.965137447523248
Co 11.583545474981367 10.83881174511264 7.6423497824832225
Co 8.887401646529486 7.951905374681666 7.95113455673456
Co 11.301689121388732 8.431156863049724 7.756540415160473
Co 10.174271030084755 10.060983709910769 13.312407263904502
Co 10.010478968439694 9.969362142661456 11.08744825722255
Co 9.83811645164676 9.874788433461738 8.762709191973114
Co 9.673797631703648 9.780516370665648 6.5411874339888065
