17
Energy = -91.94263623 eV
Co 11.266037867930487 7.825225287442114 7.207236483746255
Co 9.163738621493755 6.941905674678626 6.782502721395802
Co 9.483721421902715 9.238664516288646 7.006835714079859
Co 10.147312333980055 6.596292428084983 8.859402492759672
Co 8.899121714637186 7.765843489115826 10.564566679393499
Co 9.299349756164775 10.221232748421935 10.678666417245003
Co 7.192750283479549 9.57119709673909 11.19966524148503
Co 8.03392079893383 9.177647878883356 8.97538595703549
Co 10.429515793625459 8.839638717821872 9.117171634941482
Co 9.341911327888475 11.093566684152654 8.46049707941586
Co 7.812968875202668 6.742022198725431 8.696459626554093
Co 6.3404646893746675 7.775909796223743 10.086963355302656
Co 7.195577743820954 11.248394099439443 9.500564551099064
Co 7.2219266185857185 8.256669838520533 6.909978346644598
Co 5.786293349482626 9.400687035295519 8.446084234928405
Co 5.564053108464041 7.1351113715213454 8.028081895818318
Co 7.415623145498566 10.64908861690795 7.2465953130612455
