10
Energy = -50.21903781 eV
Co 8.530673432064502 11.54307198629758 8.9909752358801
Co 7.892811129113847 9.583863743564471 9.915244896289002
Co 7.996774088587286 9.684849410757234 7.626426569369425
Co 7.5735978981930545 7.653145293333475 11.045355292993175
Co 7.476343390428116 7.685018386248749 8.716636942214652
Co 7.569169804015406 7.752639288486401 6.424926614859618
Co 10.006397250151915 9.861064182310157 8.72438289086168
Co 9.484301153547188 7.722765151912867 9.79877090611837
Co 9.570326841710306 7.962205320643942 7.5292625811969165
Co 11.499163299382781 8.160885326137446 8.820329609046086
