13
Energy = -67.75198431 eV
Co 6.473696860272531 9.146547449109333 7.992334345884845
Co 8.138448015456758 9.931347793619755 9.299708914957375
Co 7.62092134768741 9.42822388921167 6.028318312608362
Co 5.256720542674043 7.144862890809607 8.228303613999616
Co 6.853935668335992 7.910804083321654 9.849527906430392
Co 9.378410165251308 9.73076289207718 7.367771793706863
Co 6.78214711175942 7.292396393709383 6.540231650301822
Co 8.546964731877058 7.872244236920705 8.328042846603386
Co 9.038457991720863 7.621000638058068 6.06996306340727
Co 7.156543566149264 5.960541453697393 8.563514773267405
Co 5.853631366703116 5.196624400357367 6.882418809524544
Co 7.807875609466826 5.4824196912352186 5.685949529660466
Co 9.15310413205475 5.787275114691933 7.4431944496507425
