17
Energy = -90.97356044 eV
Co 11.042681679933281 9.494701779143158 11.1294143863875
Co 10.9188645645412 11.190999434829811 9.489465263487268
Co 11.694562590030497 9.084864915002019 8.875718964323433
Co 10.432630702204678 11.838694388391167 7.3641883938306725
Co 9.696523117623718 9.80831933539195 7.941470760033726
Co 11.691628306133929 6.82634379215317 8.94791370149845
Co 8.980399770720322 10.141187746651367 10.276995827677627
Co 10.11550268206515 7.596430891301958 7.588375186638097
Co 8.859641577003238 8.61421638368673 11.972626760578244
Co 8.666923228903736 11.904846825252667 8.741241628429512
Co 9.944644865695683 7.8400583735108915 10.033541496885388
Co 8.034457223339441 7.841145213871817 8.680361087870747
Co 6.970550081814957 8.884544749609523 10.504189976669856
Co 8.238682092886219 8.737992621821864 6.560498124923961
Co 6.890242016551887 11.196900926181975 10.291148636058004
Co 7.345267934794204 10.00934276255006 8.39576940117691
Co 7.992645617635843 6.859079392892194 10.799262515992774
