12
Energy = -61.97592961 eV
Co 9.343682371972086 10.197555652328147 13.503305163396012
Co 11.87629264915947 11.508545916839015 9.83430399746673
Co 11.104711922635968 9.938571562005547 8.324188978762946
Co 9.616612909842415 11.159426197151552 9.69253259340543
Co 10.204259222203145 8.635959619832487 12.099242383638126
Co 8.484324240456997 9.987163115841796 11.37593127552298
Co 9.36007994919966 8.712048458343617 7.499373702381445
Co 10.646661758039983 10.883045897636146 11.776426282968387
Co 9.236487929952242 10.921627235350513 7.405285797125351
Co 9.766490559186789 8.787168164166168 9.809571739873512
Co 7.915750510193154 9.8333868113203 8.972430419167386
Co 11.879949141223001 9.36405882253725 10.57074894202212
