13
Energy = -68.00887819 eV
Co 10.18453159645938 12.261860482224787 12.014758540733505
Co 8.499401548034058 8.31247330495122 10.0360825
Co 9.140151105499388 10.363088525530424 11.20245502641508
Co 9.140151105499388 10.363088525530424 8.869709973584916
Co 10.18453159645938 12.261860482224787 8.057406459266497
Co 10.994580557596867 11.496473532515145 10.0360825
Co 10.844425816181563 9.066327613475591 10.0360825
Co 11.257395958096012 10.20437129427802 7.975843680748696
Co 11.257395958096012 10.20437129427802 12.0963213192513
Co 9.922427967139118 8.275878075410128 8.113201275203293
Co 10.173903353637238 6.8697155767864455 10.0360825
Co 8.947748121834245 12.513685869056355 10.0360825
Co 9.922427967139118 8.275878075410128 11.958963724796705
