12
Energy = -61.69933656 eV
Co 11.8634250798126 9.867651307639942 9.285691236943743
Co 10.473304628410196 12.016419461611465 12.806283291111917
Co 8.67247035033355 11.744614944768067 9.41917656447717
Co 10.816787756447942 8.657060723652998 10.984179159877822
Co 10.609811189138039 12.497964611405763 10.510870847673766
Co 10.519241076040002 9.577813170207856 13.104449778677473
Co 10.705581958170823 11.596544212800747 8.417015180115017
Co 9.510331953918387 10.566763904245823 11.258159606424988
Co 12.678958172707375 11.996625965134838 9.564838292079736
Co 9.562882291378532 9.63936869811258 9.180684790213226
Co 11.852167925196834 10.722321926929437 11.39785990012587
Co 12.172960813408324 10.8422712041186 13.729193798727495
