11
Energy = -56.47001761 eV
Co 7.1903699213951215 8.1732075350236 7.570728113279182
Co 9.456333461474655 8.668357701318397 7.85968618070903
Co 9.128602320772098 8.227614503854571 10.250835387933153
Co 8.092610657279605 10.117572738977142 6.719236286995544
Co 10.894725767674744 9.428322506855116 9.5355505909591
Co 10.8612240782884 7.201739079646854 8.925716538830846
Co 8.630073711181728 6.657504607979835 8.712929251331694
Co 9.189430868501864 10.512011702575693 10.623755552252653
Co 7.640326528434429 9.796522148816656 9.066090459177257
Co 9.455402920632485 10.94502823263477 8.385504391026183
Co 6.916851845903517 7.72807124231761 9.805919410583027
