12
Energy = -61.62880531 eV
Co 11.300340432814407 8.715277226523106 7.254713314711697
Co 9.95311690836164 10.604953666165073 7.275757009443714
Co 9.787311444509056 6.821388499577449 7.6280886700626205
Co 9.304972735758266 8.630354592062034 6.238227697877996
Co 9.538682103216656 8.863770898196206 8.698753430658607
Co 8.104494920092447 7.141786397488101 9.336833709185932
Co 7.611186662051021 9.468163665589616 9.945628720446372
Co 6.339485790968595 7.614648307111754 10.759182826446585
Co 7.730633383014926 9.713376948229858 7.603929752057479
Co 6.141608730745088 6.150301546135774 8.913899093553095
Co 7.55950595872149 7.337289226230433 7.166626618706492
Co 6.0867040428138495 8.39673213975901 8.636402269917264
