12
Energy = -61.05509976 eV
Co 9.995118107258962 9.305768932913573 7.3915640009145935
Co 9.086179740299423 6.990280055113164 7.761320293346576
Co 10.64930240164428 10.445195449674284 9.20767665723462
Co 8.456050067171839 10.526763108905342 8.692221727833806
Co 9.636346151433283 7.07960420612914 11.165692565860022
Co 6.786916613011676 6.903623476938994 7.9188718093941715
Co 6.244848367429127 10.322131930552718 8.23278456008862
Co 9.206415662231535 7.956475135237156 5.744241799444026
Co 8.01347835755466 6.539760265899993 9.81202977318342
Co 6.985370919176459 8.6130318024676 9.469073008524152
Co 9.29903805104646 8.493286424620733 9.498158493100838
Co 7.7252187475397225 8.900484761083653 7.205147955967764
