14
Energy = -73.3518447 eV
Co 9.903194466124095 8.441082697934114 10.867682119451516
Co 10.27527927442384 7.351596101035041 8.774633399303394
Co 7.675855297522156 9.497007848685742 10.82014710509717
Co 8.285181963881863 7.691977997490961 7.34916374564895
Co 6.704760492912784 8.993680926102014 8.650108078148591
Co 11.261206723875583 9.585378240124866 9.149179829217458
Co 10.249520693987925 9.077531881186989 7.00423694643707
Co 9.641124822466614 10.86259001470378 10.425848534650191
Co 8.0355701088338 9.97487621640838 6.928201452476457
Co 7.642280249096222 11.132138291201349 9.152780892919278
Co 9.94055177107445 11.187023052192814 8.078114578944216
Co 8.107162255016688 7.298904117820226 9.777398296253239
Co 8.971522962900913 9.27671492033204 8.903949408037917
Co 9.8610921866252 6.187056091767436 10.671170763668448
