19
Energy = -103.36178645 eV
Co 6.551933938640848 8.746418484054443 10.34787673610569
Co 10.28468333332563 8.074436608635322 9.349416103359143
Co 10.433689208263585 7.487326488018581 11.629562551009544
Co 10.166260876384047 9.61173331419738 12.834758804049502
Co 12.010115707527861 9.966583583080896 8.999995334018221
Co 7.410870842323416 10.801328242060485 9.988550284828833
Co 8.635094552347406 8.787032269675088 11.15803035806874
Co 11.975907241493374 8.1099009649847 7.7318879168809165
Co 11.6270858695949 9.331217961433879 11.144818008687206
Co 8.815919928622902 11.102157720565724 11.787625569474862
Co 10.200601918923848 9.621073445959931 7.463537502292654
Co 9.744245208882148 10.340524876650505 9.74677017402797
Co 10.837260381202894 11.868259217525322 8.386791743264103
Co 9.270324368149504 12.657667491077225 9.939714224272532
Co 8.520809121664007 11.342489746560277 8.037558877497792
Co 12.408741766738137 7.547226039534203 9.952266043926889
Co 8.116037738710734 9.658318415607472 6.559526926460745
Co 10.995140837939138 11.57882551385014 11.177072005197603
Co 8.078087469842263 8.953387447109145 8.669564916073542
