11
Energy = -56.34965148 eV
Co 7.282230028454484 8.369662702217632 10.91603241360223
Co 7.677257114874508 10.1198149108687 9.410849845381438
Co 9.07925108834642 10.974578484116222 7.753803347378381
Co 9.497635885510915 8.98484517851777 10.308688980708807
Co 8.89847502697747 8.674166584150973 8.066273147513979
Co 10.908120814962295 9.650726413742097 7.502989981640903
Co 11.496173145970753 9.891903322226963 9.612814439542698
Co 9.70910772926584 11.255635812472791 9.863827334836285
Co 8.64172575617678 7.015871632718406 9.586829806448478
Co 10.832008136418686 7.726023486840376 8.900783785603265
Co 6.716785273041722 8.075541405180182 8.815877051238948
