17
Energy = -91.93233181 eV
Co 10.275224556638719 7.957062590621459 9.24379755352966
Co 10.276162262978126 8.586286142985507 6.93782154934975
Co 8.817256223551396 6.13713815456991 9.292854123509734
Co 10.283382373767349 6.319447628557202 7.538368798476037
Co 8.46473029204836 7.728870767309134 10.902374229039687
Co 8.820215669570382 6.875653127353928 5.935612718662425
Co 8.970790492244824 10.422146958909506 7.683246248786553
Co 6.650210346638058 6.645157666632535 9.761521195294693
Co 8.20168816787047 8.131246046633642 8.030377453977948
Co 8.992720163515623 9.76936317084145 9.879938741679089
Co 7.258307578385567 5.974685271852872 7.469695628856566
Co 5.763726357148468 7.763147525794647 7.978072737663978
Co 6.577104802395459 7.585250177859605 5.8663794320773
Co 6.827645997451552 9.036725793907825 9.764032717949464
Co 8.216560390317353 9.157230271973612 5.838796020202684
Co 7.338974545234708 11.23845760477714 9.176539189580522
Co 6.6953342735454875 9.868039287170706 7.478134086882954
