17
Energy = -91.19215465 eV
Co 11.696409486352406 9.170303169508792 10.042875335483899
Co 8.158280479582347 10.106237763069979 11.398747228681168
Co 10.53653339907548 9.178908118691524 8.095722153138
Co 10.675688296917377 11.501105224164833 7.8409540878015935
Co 9.312428178190824 10.751322389613701 9.458044120478798
Co 9.51377716245867 8.548649011622597 10.346409658784179
Co 7.006334184101739 10.665381006585621 9.561369927878903
Co 11.977817999630222 7.491599479398213 8.443679349605997
Co 8.147421681382701 12.125995296367073 8.083485933741038
Co 7.1439331263054555 8.289983161051335 10.425347165902068
Co 11.066581634881928 6.904605731154951 10.399051446365764
Co 8.979231654980982 10.442706477436257 6.846678333631436
Co 9.659791469880172 7.010957517453192 8.537563197687847
Co 8.643030917310522 6.407843713421514 10.53894122913269
Co 8.007175645264187 8.870472099585843 8.343796368515685
Co 6.723164313923927 10.458266814847727 7.302553575940606
Co 7.301240335799109 6.726333647694028 8.77279617842504
