17
Energy = -127.90272267 eV
Co 11.104365920779511 6.954051000643074 8.486124617656147
Co 10.568031945178967 9.647979682096956 7.264817575698169
Co 9.50405600450853 8.784603174415787 9.14432790327946
Co 9.798034541050715 6.099784214270116 10.116847792391301
Co 9.33058731969623 7.591319403323254 6.68625320794259
Co 9.608705692178038 11.510161049223539 8.810908327378515
Co 11.380932738399657 10.572202000437382 9.939219310455101
Co 7.992920656514185 10.001430740949955 7.371587476618819
Co 11.268886838047246 8.298584547945485 10.724949504147686
Co 9.405714453369484 12.722671134642162 10.922237830297002
Co 6.899106241851315 8.109116610903737 6.768955761247716
Co 8.258587424124832 6.558458638990418 8.616238124783655
Co 7.697452995741538 10.497096274321441 9.860444409187723
Co 5.653769941991296 10.343651306234591 7.966010764497811
Co 9.556434892339498 10.376009821273305 11.384295004828774
Co 8.687325187256347 7.967040022709728 11.151859059424208
Co 6.796388537717399 8.325453014173595 9.270083942143302
