13
Energy = -67.46479597 eV
Co 9.8430695 12.057656101107282 12.353974963472583
Co 8.696168832791432 8.696602363323088 10.65229734897898
Co 8.696168832791432 10.989536636676913 10.65229734897898
Co 8.678551184233513 9.8430695 8.516974744004886
Co 9.8430695 11.858824643093513 8.852031177700434
Co 10.989970167208568 10.989536636676913 10.65229734897898
Co 10.989970167208568 8.696602363323088 10.65229734897898
Co 11.00758781576649 9.8430695 8.516974744004886
Co 9.8430695 9.8430695 12.429776446644771
Co 9.8430695 7.628482898892716 12.353974963472583
Co 9.8430695 8.752112679817895 6.737487867705608
Co 9.8430695 7.827314356906342 8.852031177700434
Co 9.8430695 10.934026320182106 6.737487867705608
