15
Energy = -79.67434693 eV
Co 9.154033160293839 6.676562040333756 5.840317021355425
Co 7.3705002937347395 8.153021817734079 5.9895814681514254
Co 10.611457595053176 8.183482803791302 9.40283426198762
Co 9.258003878727846 8.350204375374192 7.46587360657362
Co 9.97412076993032 6.310317622503383 8.129924511454364
Co 6.866965037258291 10.863147186387845 9.0377248899512
Co 8.500493003202237 7.4053037301281766 9.78286698164914
Co 6.293741265450267 6.931684503154731 9.756483270779528
Co 9.323495897533189 8.929316243400622 11.30947958293653
Co 7.024843059307355 9.045085116642776 10.647501236754382
Co 7.6702326292254 6.529978164758992 7.677702423136992
Co 6.874246365144319 8.646687877355275 8.369062674941766
Co 9.337421249924555 8.952905470632086 5.267827268188686
Co 7.930103273507007 10.189756021247423 6.9735102644820905
Co 8.805487800092969 9.82769230493989 9.344455816042185
