13
Energy = -67.77548896 eV
Co 10.86417435442703 8.48852071910705 9.198027535234223
Co 9.886104969926347 8.722192353298192 7.096218384761286
Co 10.227177825485258 6.592477249946987 7.931374964949857
Co 8.914700222951176 9.688736180396894 9.059952530633344
Co 8.842421818233875 7.359805777695875 9.57305308661502
Co 7.553676862775928 8.984765513695187 10.796896063958636
Co 7.967849022742547 5.873866992934312 8.016389380162854
Co 6.578057641865765 7.355724928944945 9.46677484495667
Co 6.531167140778008 9.68734898096272 8.91852938483664
Co 8.942657297977087 6.857409638799912 6.098359985495614
Co 7.623532719189022 11.570625706177374 8.70011727155519
Co 8.083086022935563 10.265685383767387 6.922136819688385
Co 7.6676754868630566 8.093559006069897 7.603987582921649
