16
Energy = -85.12078806 eV
Co 10.805810408594393 9.566600013214492 10.656532710987012
Co 11.428071636879615 7.344681534248087 10.807281094720292
Co 9.676605504933905 10.650235164510205 6.138034848054767
Co 10.247895907135419 7.990494404205756 9.001191646082226
Co 10.459342930564636 10.22328635059054 8.401444790176797
Co 10.387129135353229 8.589030863786357 6.718278866257213
Co 9.182249218680424 9.938479915438013 12.275727740328184
Co 9.314810277400621 7.831741964470953 11.310664493612581
Co 8.680703552607815 10.367650483657107 10.060793970864037
Co 8.712326881408766 7.103419742331662 7.398484248339375
Co 7.943719454815556 8.118287832136422 9.390060904834922
Co 8.283157045470627 9.875550446298147 7.746479652386249
Co 8.275796212957781 8.748677423969603 5.766030405434807
Co 7.260842303446189 9.113369423683082 11.357751902428532
Co 6.4586095285622624 9.884849141960357 9.25566060824356
Co 6.6608590788828135 8.302290210320102 7.459949047477441
