15
Energy = -80.13099322 eV
Co 9.56810812932006 8.658759377680694 10.565958908190973
Co 11.93145586657285 8.718492289754392 10.50310896328002
Co 7.210523254821277 8.700044101356557 10.496709200268677
Co 10.785831515732717 10.761675659711665 10.384883551196905
Co 8.362516175412503 10.752622508837783 10.396161678033527
Co 9.573368094470593 12.735434989754856 10.293890465361008
Co 10.710826520441973 6.606989723424162 10.47028719232581
Co 8.431362919940229 6.641337816055011 10.499416214163913
Co 9.569990907464808 10.054524889310414 8.508526532224193
Co 11.984407089149494 9.956588071104578 8.601187661822989
Co 7.163123294803547 9.95618417339644 8.591129598647427
Co 10.74523791083235 12.064314960946117 8.467634876265056
Co 8.394606750057003 12.06238270181011 8.479819873542505
Co 10.755124630889942 7.949608141303398 8.668956973726244
Co 8.388139440090113 7.955663095554095 8.646950810950631
