14
Energy = -103.56974538 eV
Co 4.611963893008733 7.618203113655017 8.543437822027519
Co 5.127184912518283 5.080141300124287 9.675056659374716
Co 5.567058434328432 5.813834765230991 7.348225546943197
Co 6.513967904931478 7.098473484460505 9.871767329244475
Co 5.635008094352301 7.909482618648225 6.043068410660806
Co 7.608314515575431 5.516812190776648 8.46383700095765
Co 9.013791800048812 9.932187212247245 7.044131274463031
Co 10.018215114598801 8.332274566761303 5.485446661221846
Co 10.973440935181227 8.06074334020049 7.614234498686426
Co 7.954980533947921 7.2645185381475805 6.540778993046283
Co 8.55086748833181 8.077441064613375 8.580335871292698
Co 7.567011417765088 9.720019413515 5.4870638482373035
Co 10.020984936764501 6.034842433092972 7.100796706057304
Co 6.440185025350063 9.14400096522955 7.8047943844900844
