15
Energy = -79.28627808 eV
Co 9.986836213917933 10.239585891100145 11.33069674069935
Co 9.98058447542079 7.914589734530776 10.951525576531331
Co 9.991875176751545 5.7401216439641285 10.585218393506016
Co 10.397734022874127 9.31542421484949 9.144399822472886
Co 10.265060626244317 7.049148879716258 8.693519586523426
Co 9.043293151978412 11.22862342386556 9.50456421050309
Co 8.202200548038471 6.885570048304726 9.650485002435229
Co 10.350069583825142 8.615474192768609 6.926556393764627
Co 8.38495159044873 7.268727609711246 7.396512391686761
Co 8.161235896923644 9.141205598286037 10.180016024323443
Co 10.253024755080832 10.996867231208785 7.471216298812354
Co 8.108205179131627 11.89866172094316 7.564169114368715
Co 8.415425158690725 9.550164635058644 7.844320455245341
Co 6.602323732807178 8.321819190037237 8.665751031357932
Co 6.763298518426671 10.724533258447472 9.062649889408931
