15
Energy = -79.04697962 eV
Co 6.067291562958844 7.699528571080879 6.048959661211114
Co 4.742170691066935 9.292963672990629 7.211577542009597
Co 10.045390512083152 7.4263593432294845 8.419206838530764
Co 6.749046998208345 5.848628104353688 7.6483247715261715
Co 8.052040210470325 6.727201978224189 9.355817202183697
Co 6.263769730877115 8.02343659126239 8.348685578855415
Co 8.412017637801094 9.006286756201627 8.975711257561008
Co 8.006104701232367 8.515535058286064 4.905199869014186
Co 9.862621574277513 5.451034638530386 9.775422933643709
Co 8.226168315657443 7.497802358289811 6.940308225301347
Co 8.620250740315509 9.754432605085203 6.81936732969603
Co 9.105250001761677 5.406397859766018 7.592913871228254
Co 6.669096328729653 10.280612171553985 8.111835237330878
Co 6.5142912220189615 9.898461609680188 5.876454226257228
Co 7.899128179942477 4.405957088866722 9.204853863052014
