10
Energy = -50.13283692 eV
Co 6.827070552981616 9.728306221818883 6.76538951804489
Co 6.851709774856501 7.989364381725391 8.280179353420982
Co 7.677386585617299 10.045958925243216 8.810180077451939
Co 9.724094880945087 9.155367896794967 8.219774756490256
Co 8.412348216170747 8.134064636884572 6.618588013161666
Co 9.514652971134169 10.195214109299352 10.187957692401774
Co 10.596411191256259 7.501037485563522 6.995072923044582
Co 8.35100782410009 8.233528005269024 10.070790879849946
Co 8.968477968660894 6.826418493265111 8.433295406862698
Co 7.210573611712586 6.23653012482434 9.747016479038564
