10
Energy = -50.16143134 eV
Co 8.093620941393864 12.09368830391525 11.744193918282585
Co 11.168844774527294 11.526609828630374 10.122382627654094
Co 10.210156321873601 11.261581887195522 8.066015881172497
Co 10.994278253300196 9.42727866807496 9.234154888760601
Co 11.84750116652719 7.5637880668879385 10.278438206178443
Co 9.71911849346992 8.170791449769037 10.691713651939612
Co 8.750612648611714 9.84571886861671 9.103907241798513
Co 11.56750842294117 9.454742438057199 11.469736895224285
Co 8.907498395997107 12.12227878284952 9.741243730725623
Co 9.47263591168976 10.423141729077631 11.20644405653045
