14
Energy = -72.58793029 eV
Co 7.435370885408084 9.855944436586986 8.843580982721736
Co 10.648979086392574 9.63536388471707 11.465657114940889
Co 9.096410918050324 8.53471064188811 9.886743625365593
Co 10.746569376323217 11.891549876011002 10.25966455279668
Co 14.075653850059458 11.130021476284256 12.19630830364008
Co 7.732974213354083 7.632641357009849 8.352311023434083
Co 9.185737365013413 9.134241121212844 7.4944851691024645
Co 9.158619568429494 11.317620823634606 8.343872546446452
Co 8.772870928350208 10.703987158198114 10.560759271689014
Co 10.749732120710691 9.869255251145995 9.084907006592934
Co 12.231583508188368 12.483960985771343 11.962871186124126
Co 10.158607708365661 11.601118699648614 12.495898645763159
Co 12.56155279318194 10.545214715211948 10.652215968280688
Co 12.1148252373626 10.458071185026748 13.094950399211069
