14
Energy = -73.22726264 eV
Co 10.209658498963343 6.870510903569956 8.46991176324496
Co 10.331515494337747 7.923496024161559 6.365377118852984
Co 8.329671844944706 7.02712188156203 7.165549092414454
Co 8.02520132317512 6.58483974974006 9.393852546340838
Co 10.221978563731591 9.175854197751447 8.421661210229143
Co 8.62044702441847 9.353095330256096 6.69393903565865
Co 6.302931860483114 6.258058639691426 7.853060641989597
Co 6.494459432145961 8.32835663186326 6.624545327473133
Co 7.29309293164868 8.201343135134643 11.017845347890205
Co 9.556616589120805 7.997813774154079 10.388439502906989
Co 8.27866339683018 9.695268836913547 9.515521163813183
Co 6.44386876836577 8.278433229532133 8.929340030042608
Co 9.096119991594378 11.177118899446423 7.9970054435507825
Co 6.844605899786353 10.31441535880504 7.806104615978666
