16
Energy = -85.71234134 eV
Co 9.47064306959273 8.987637361002491 11.051681641779243
Co 7.652106911601527 7.7556715165421615 11.604985934451582
Co 7.5860437621250405 10.152493040386075 11.71354235767415
Co 9.781641884910645 11.123755139598423 11.7311003212248
Co 8.894049268149862 7.11317082733611 9.6476586042296
Co 7.335605427487962 8.939680068037925 9.695406341260503
Co 8.638008387594516 11.004468089930208 9.772384966785934
Co 10.957922062489942 10.38953641680332 9.766402798745508
Co 11.220612516379411 7.941656204730739 9.561747423825025
Co 9.436711035192031 9.099902759310053 8.607563804510866
Co 9.38131295549253 9.21771475484485 6.337076906317392
Co 7.823283913102516 7.839290830415093 7.5398654180424565
Co 10.22916154706758 7.242838218473565 7.532801297847841
Co 7.656569496678846 10.256188708320057 7.642919799508237
Co 9.910289076112427 11.151822609239943 7.659759778298831
Co 11.487412826048539 9.240292771218913 7.604521419695416
