14
Energy = -73.79353556 eV
Co 13.944237990077788 10.305874965295923 10.652273514818852
Co 9.83602716904133 11.721922197227736 10.429047880008229
Co 8.905471543577164 12.351033375442151 12.486521373524473
Co 11.979711539442386 10.032637984108613 11.800959702413435
Co 11.218601580583396 12.110910450680443 12.34564991016487
Co 10.6641190753562 10.954873412846032 8.364114398754522
Co 8.071746860764081 10.538686740150595 11.445723106275034
Co 10.026729870536775 8.789538144630894 8.43936467358367
Co 8.505949645182014 10.320122559105624 9.124790895828488
Co 9.965325516166018 9.379939610366456 10.70521661156105
Co 13.480441185362555 11.94983596251623 12.107270149994202
Co 12.008775258355106 9.47450368814714 9.52834714171398
Co 12.163221031801488 11.701315562391503 10.12473148690194
Co 9.876694715693887 10.310280988493925 12.929725176382943
