13
Energy = -67.59830998 eV
Co 9.743583257830931 9.512478379639743 8.307069808543257
Co 8.840910292793078 8.816330249724809 10.684782033628592
Co 10.444472771270547 9.61607451673231 12.240599283205452
Co 10.737089483298483 11.65246922815476 8.599061033087368
Co 8.28096201102636 9.27775930385881 12.853631442974306
Co 11.389545013022312 10.279514551069692 6.91007304953929
Co 11.138379819167039 9.159787144414988 10.068583047590607
Co 11.214088638110242 11.336359169094424 10.864799334018754
Co 9.07003418259632 11.436693746234026 12.305371265721428
Co 11.843944548444401 8.421773316362305 8.055231485419013
Co 7.223770722327002 10.447378216341155 11.28676862907502
Co 9.058510731754568 10.99271413292269 10.076626893296394
Co 12.634088230865224 10.43597259232361 8.914614404295923
