14
Energy = -103.81868258 eV
Co 13.557179344632829 12.292838460960505 12.179768243928478
Co 8.793124779131428 7.865831621952278 9.705335657510489
Co 12.91635191973817 10.26201784974544 10.272090411196325
Co 10.135254932681935 9.597622520426718 11.01688437118517
Co 9.501652192533092 11.302803636584581 12.792744752094537
Co 13.329464978627271 12.760552565077989 10.021434636834758
Co 7.665140920979142 9.35240726050388 11.73178778507704
Co 12.078414071590192 10.42698258483412 12.414789848007482
Co 7.003389393580003 9.489040838695047 9.521638405272652
Co 11.486218462841833 8.464551029660077 9.232029386408575
Co 11.272292272267444 11.21068654048516 8.931563467166841
Co 9.578964132402229 9.637106453644572 8.277431585686058
Co 10.990501097016509 12.222092669553668 11.072350005572309
Co 8.761119140112012 11.19804339709387 10.004335935655318
