17
Energy = -90.92678939 eV
Co 10.27670786302951 5.566858030724411 9.457332414600655
Co 8.916290960334782 9.184249340529597 10.391589118773036
Co 9.199642732163044 11.444777823417352 10.778419236144428
Co 6.23573682756852 9.360930390224413 7.712536652585791
Co 10.699181308213456 7.631982735014889 10.306046316050933
Co 11.338329509772324 11.51916631965572 9.815455975782276
Co 10.794803841866706 9.466709241984953 8.915303413257266
Co 7.706071681530757 10.964534134396455 6.966949040245489
Co 8.623229352967723 9.082450116527415 7.90781317493869
Co 10.91101024997747 9.851779033010747 11.27359453094762
Co 10.257985510987405 7.283790566304964 7.937200098092338
Co 8.782978092660612 7.4783184960903615 6.287833766331209
Co 8.556473212066903 6.990812973320148 9.49197876892367
Co 7.407515795714283 10.675935542462396 9.301381490827257
Co 7.1151859343838275 7.2223704668692426 7.730918764732885
Co 6.7132987024146225 8.433617862614128 9.746045789250383
Co 9.434786790939047 11.312982991636654 8.497109826610124
