14
Energy = -72.85137453 eV
Co 9.72213078609216 9.94243133691238 10.764493213941437
Co 9.02468364598082 7.8815786803043055 10.13039212698326
Co 8.793298613579443 11.763594348456039 9.90832979632722
Co 9.969444356590872 9.472733032901424 8.56915581011966
Co 10.317510003558121 6.206764794845119 10.6611971871397
Co 7.680309783342481 9.815425905933543 9.361880612315744
Co 10.90299340234176 7.30055450198378 8.725883645421414
Co 5.662503833737156 9.223079369059624 8.542065293093144
Co 8.576943294740127 11.182797874007521 7.733891504968172
Co 8.980804842125423 5.839621900984098 8.860482663414622
Co 9.0419363995808 7.662677344994398 7.412862967500237
Co 9.449120778298527 9.664176667333003 6.272021358421357
Co 7.206051749369047 7.474699816457172 8.763477023563347
Co 7.336921832188675 9.25930018638914 7.092958336918347
