11
Energy = -55.85827916 eV
Co 6.727498258347692 11.26826910867216 10.721536322446656
Co 8.507191009554319 12.138795423860211 9.858115725388561
Co 10.120752326107592 11.219129020708738 11.381775580347957
Co 9.038588848077719 10.25637719939253 8.488454845950981
Co 9.7303814987866 8.24316883452653 9.46979272162035
Co 11.30407860996294 9.457605456428642 8.438896422735018
Co 10.472742582603752 8.902671440785818 11.461605627178589
Co 10.694820606392671 11.576289356424562 9.239051957927702
Co 12.067157191203854 10.143352284454453 10.496647805376513
Co 12.031587297511347 7.935585273086897 9.95660698313391
Co 8.461553116837297 9.88532222501176 10.634554903514868
