18
Energy = -98.01473529 eV
Co 9.719169296674513 9.274835082081736 11.075091172621853
Co 7.693016689085589 8.167892953839885 11.547067944700402
Co 7.9277298869880015 10.573811549838396 11.726071797945476
Co 10.193429817402446 11.367159341967167 11.743855943546885
Co 8.964500507450072 7.324745550815849 9.749119372244978
Co 7.455324370165069 9.508755541927947 9.713381575312201
Co 9.04543368949091 11.388807877884677 9.790391718647276
Co 11.289080264926907 10.497985182715933 9.758919767200483
Co 11.320915202844601 8.087690837194183 9.591875055681433
Co 9.615921900773897 9.398721498187394 8.64104127350555
Co 9.554826569134853 9.464894999609157 6.347834937706512
Co 7.82063810911526 8.225175411881713 7.6388473920929485
Co 10.08386899814027 7.386871233857276 7.641413265471618
Co 7.987944394014328 10.712347465513304 7.634744364236773
Co 10.28347506172802 11.34538647587165 7.625890917834793
Co 11.654874701913778 9.337543179384047 7.570033965295014
Co 6.671115879805347 7.328352686678877 9.517415144627277
Co 8.12687535564718 6.031395059066822 8.113118627822214
