11
Energy = -56.0040121 eV
Co 9.744610290539336 9.58842642980542 9.051476930536479
Co 11.556350836420618 9.958250148933042 10.44554840818859
Co 7.612713826059774 8.935160820102602 8.163474914298833
Co 8.162087622795186 11.188689811245252 8.629535439839437
Co 8.727658062028908 7.531173439649149 9.730919166320817
Co 9.615193822437964 7.791420058216768 7.63906863439551
Co 11.000363769806517 7.784346785981443 9.693623243792262
Co 9.767025923038108 8.925098093587788 11.358318208527898
Co 9.547505779603528 11.182052626549007 10.683671827477703
Co 7.766859203929598 9.77750340170798 10.385644211870929
Co 9.131242569327169 9.969489884221547 6.850330308764564
