14
Energy = -72.97156362 eV
Co 9.15098657854495 8.147267580215974 9.908095060961195
Co 8.537614912218075 6.926624639277342 11.730765679720653
Co 6.893401134202066 7.8169902535645255 10.560064871520623
Co 9.485848339514016 8.901246188459758 12.029237595184558
Co 7.9014415735661645 9.913481441618917 10.872932171474844
Co 9.348726006412525 10.295962492046193 8.956574373336947
Co 9.469012471917658 8.334336441851272 7.588270050148885
Co 7.7464269370429895 6.920415574602157 8.46776174204269
Co 10.591441466075198 10.076857587866119 6.71932313165873
Co 7.305278277224803 9.20638508906997 8.680692527757154
Co 8.950030393377178 6.628218459759574 6.220654965877629
Co 8.349911331895237 10.30618266650654 6.833112231959199
Co 9.320129242778721 8.736851248132469 5.291191103452344
Co 7.334747867213445 8.174176869012213 6.526321026887279
