13
Energy = -67.81013317 eV
Co 6.248948110817349 7.53346475355182 9.781054485780786
Co 7.279305108206082 5.671099035670313 8.956801142933935
Co 9.45628158387406 6.125662649134913 8.422673257557477
Co 6.215090868495634 9.37117824010889 8.159589932446092
Co 8.038515624142477 7.961108205178886 8.367622278033519
Co 9.650666516374864 7.846308920153067 6.69822658595089
Co 8.040057105446023 9.567010491134969 6.680859289433495
Co 7.970292012029797 6.247255334683185 6.6452475079292945
Co 7.975448082529092 7.930022385748715 5.039835834662873
Co 5.897962078352311 7.170876606521646 7.522223684733363
Co 6.140582540569733 4.903212035209784 7.1329949102693915
Co 6.005111482616028 8.811651309054058 5.8755954188796995
Co 6.0966941077394115 6.531223628389857 5.307813682873685
