18
Energy = -97.04410936 eV
Co 10.413114632291517 11.40538754853585 8.675734559503972
Co 11.444694454425616 9.58810031986314 7.644208369056607
Co 10.996384940224372 9.878380067328095 10.232369387775869
Co 9.69790619094607 8.652846679803112 8.824663250168681
Co 10.606756548704665 7.116509536530554 7.394350688030336
Co 8.782642822900891 10.565459152453593 10.194040520426345
Co 8.410461790742264 10.519432978544375 7.886104960573432
Co 8.704226445268956 6.500191794815961 8.606871222783237
Co 8.561888603274474 6.7562552534905524 6.346581287724289
Co 7.431962396719647 5.960964540918653 10.357199435009287
Co 10.171884237811085 11.045797027561575 6.3948831744069
Co 7.529855974318008 8.307840075395152 7.764580792958747
Co 9.411287690159037 9.177147028079055 11.906100190229706
Co 7.221014807441846 9.924330940071666 11.728701229849504
Co 9.475880279892436 8.88353551609133 6.472864098102352
Co 6.667019975309833 9.830888635530604 9.47210760029905
Co 8.025024450042814 8.149062969448908 10.381311876599801
Co 6.1114458617760254 7.455915676122951 9.289024270064825
