11
Energy = -55.46982911 eV
Co 8.707242569522291 6.7599148666179385 7.609402225287476
Co 10.628190065177725 7.8848636918759984 7.731327904342041
Co 8.138273021780595 8.366977155433124 6.214917906764849
Co 10.108822941897563 9.379056494327669 6.141388218995343
Co 9.238577429165634 7.961555798634519 9.605434348587307
Co 9.024073545261517 8.510907253122411 11.745276277292737
Co 9.152396059600582 9.754869068062492 8.107154596722346
Co 7.267280653709405 8.390990698770086 8.410225178847266
Co 9.44853862989906 10.234716730836093 10.376531249266627
Co 7.043681286405384 8.578430074919376 10.750812060961042
Co 7.3770752165243945 10.404589769529874 9.55953634567216
