17
Energy = -91.21300779 eV
Co 10.051771003119654 7.330051635491232 8.360211816152734
Co 11.984238048315705 8.210989906663817 9.073904088975324
Co 9.310784611783879 5.580406752912099 9.403449094134851
Co 8.518424233151368 9.111271992907637 8.079898259459414
Co 10.82775563330525 9.402321544137397 7.411790495999506
Co 6.596884497857081 8.58583637969827 6.869720647902967
Co 7.4693026481775755 10.753848763536897 6.8516909508686545
Co 7.833942628405822 6.813249312019993 7.620555274674589
Co 10.461212914219766 9.880309508828848 9.591595011839388
Co 6.368772831173089 8.859134373830415 9.071123644007793
Co 9.404041917624683 11.250732521799938 8.028013627806734
Co 7.3113155447592915 10.956304124264573 9.15178609627619
Co 7.949843238793503 7.347829495969815 9.763026988846672
Co 8.340913666057913 9.461742382770677 10.634824046107674
Co 10.153084721338072 7.7937648345281705 10.64063876823343
Co 9.206216688306684 11.613127734788755 10.417596490820078
Co 10.17777315590529 9.81485043376741 11.856866892265597
