12
Energy = -61.60177255 eV
Co 7.162212647209694 8.258182534295305 7.17090753182295
Co 5.884835840860558 9.184732837954485 8.701968123572849
Co 8.033467369467461 10.198137946270572 8.44240968770155
Co 9.333240730508757 8.460932070424285 7.730699625564099
Co 6.734148739032887 10.030185721564232 10.555480989907498
Co 7.798260690745949 8.128881186207797 9.528593956930282
Co 10.510883026722315 10.216902364258939 8.736208674967104
Co 10.291542080280863 8.14406451164988 9.81827796597233
Co 11.560487699310555 8.213828187338791 7.729205692278565
Co 8.987463952988644 9.901783566257278 10.514725823854855
Co 11.156120777333033 9.94785189474774 11.138621324360672
Co 12.434145880465236 9.172344002360704 9.519062994007305
