18
Energy = -96.9496994 eV
Co 11.564870335922793 6.635776913685904 8.817853447661602
Co 12.026824794550457 8.963921769905893 9.320273812567086
Co 10.205255885729857 7.809691774808027 10.114125406134566
Co 8.079337595033808 7.189475639772512 10.674750550149868
Co 10.3118806374969 10.297375923696714 10.301389714296059
Co 8.913426635203193 9.040624760419805 11.779002913862149
Co 9.595343149624455 7.538282238354856 7.834672084602406
Co 11.737075203245926 8.124485046286866 7.159124572791656
Co 8.30127632709409 9.019521212631489 9.316918771883936
Co 6.648398741090522 9.087607927230513 10.872995786765403
Co 9.85136984346687 8.88368032373831 5.914019827665532
Co 10.333485693482066 9.767997872640741 7.981928645693479
Co 7.946390094649994 10.964349621831966 10.814819042794486
Co 9.634377490705718 11.169832379203353 12.353893035938597
Co 8.095542571568144 9.572553889348399 7.135617588278434
Co 6.5518464533127 10.426491899991312 8.803659770931095
Co 8.687292672092084 11.345799746030238 8.667478611174117
Co 9.681230586437705 12.502847887782552 10.421565702632844
