11
Energy = -56.4805196 eV
Co 8.335988068061313 9.347530189757984 10.691194598266938
Co 8.337747894966178 9.341773065760956 8.273519197048822
Co 7.43170355609557 11.127219576607537 9.477582041548338
Co 10.03924396240434 8.300311151804907 9.486046322677234
Co 9.743259729687672 10.762138786566446 9.480066318801713
Co 6.366887370588855 9.110305842188499 9.481469566940612
Co 7.877424149546854 7.401259171588938 9.486525137113249
Co 10.894407823296678 9.656205591447693 11.115428310698995
Co 10.89721809422191 9.648707482261191 7.851855146444857
Co 12.324523234438411 8.729624921910888 9.487537672563336
Co 12.064101116692354 10.8874292201047 9.481280687896048
