18
Energy = -96.40343936 eV
Co 12.099524279944987 9.666699907824313 7.670725036946103
Co 12.026151101665524 11.750166941058328 8.947397762620412
Co 11.65462132522237 11.605835713450334 11.222233818254317
Co 11.361893401456426 9.763905295928954 9.879222308458685
Co 10.130640699735952 8.477127318504206 8.130597976849906
Co 10.198974853425543 10.874322620310393 7.884688439202096
Co 9.659489213003264 8.310199358838632 10.493952898848004
Co 9.664043278445963 11.445382925328706 10.118737788445168
Co 10.131636258347765 10.002135335202025 11.984263940035273
Co 7.96146525378845 10.120259198090487 11.26506127250544
Co 9.231417832766438 6.519351247904607 9.145447888379913
Co 8.303634060371902 8.166267008846981 12.267896373981753
Co 8.201883189423313 11.817078854316108 8.181592408500427
Co 8.533654644609403 9.83280779895172 6.711931322956624
Co 8.240467327387423 9.726689971565502 9.04015926714951
Co 7.411412302668286 7.795901640647279 10.154629469900195
Co 7.832414069612025 7.8422208403136295 7.79112077872125
Co 7.0532321866385645 5.973691043965168 8.783089734733222
