10
Energy = -50.83897972 eV
Co 8.984214988704988 9.459054474488285 7.789481451125843
Co 7.072816379286479 10.801501448010802 7.987798537741053
Co 7.149948681778748 9.171892667865466 6.397157425875768
Co 8.139280941532748 10.078118461543376 9.865336068342268
Co 10.542165000484179 7.666403715698927 7.821534325399749
Co 8.321123420240225 7.290247040975809 7.255675360861841
Co 9.522028708448593 5.791011622148744 8.610824268135222
Co 8.96020877428666 7.884883367804014 9.505834304185303
Co 6.910582647794075 8.547724938615616 8.620313671515342
Co 7.351164617544629 6.262696422950431 9.09957874691908
