10
Energy = -49.85409344 eV
Co 7.216687578507192 6.125016543859939 6.731583911766277
Co 7.450970565205331 8.36424696131286 6.831468341340661
Co 9.135628076566828 7.005901617725166 7.6598594243680065
Co 7.0239580138227655 7.14017955065867 8.747616080251932
Co 10.593154060916946 8.660898190243056 7.8767647270614205
Co 8.991767372659778 10.038747206192378 6.914836762451873
Co 8.980803536343199 7.111424647750167 10.012580899289759
Co 6.969072101116182 10.251200151037537 7.987929646125418
Co 8.591150493773256 9.010088484482983 8.900092263758436
Co 7.1430862895848835 8.412787690120034 10.557666921743191
