15
Energy = -79.71739937 eV
Co 7.782025945483015 8.697026698284398 11.133437045380717
Co 9.959598371885754 10.63849945689608 8.586444785395148
Co 9.82991563154486 9.284073711897118 12.213691697510672
Co 11.987599293000889 11.631435498815229 8.759245834975152
Co 11.870249667118694 9.24666268924304 8.863315981847796
Co 9.900995052960816 8.604685153808527 7.560526839811059
Co 11.79119328201273 8.37069238614804 11.117898266081374
Co 9.857231822027478 11.740099975439124 12.304577079173702
Co 11.18311467313424 10.562652702479332 10.711592846736286
Co 9.82418353670896 8.600040213630892 9.940024818010812
Co 10.258825040124004 12.545352087617509 10.124697171628345
Co 7.974306344193308 9.213707194584561 8.797026333944544
Co 8.737178927997693 10.684343829970297 10.624915692122528
Co 11.48646659447401 10.219278979912465 6.896095410927205
Co 7.991193090151325 10.395527034863957 12.800587810045363
