16
Energy = -84.77088364 eV
Co 10.395824706185056 11.385837505874148 8.368762396279493
Co 9.150703285673318 11.67187875607622 10.416175095720735
Co 10.998460499515764 8.395311492311064 13.137867932450204
Co 10.068839189368004 10.248183852779263 12.084501179672987
Co 8.2978493284103 8.02594022750944 9.234497957561478
Co 8.03494960083082 10.4184691343282 8.677020305325145
Co 6.308430390451224 9.106251807068894 9.181530312013322
Co 11.402528649894847 10.323255757133692 6.562880927751604
Co 7.897761791054321 9.641120025657292 10.916654711642444
Co 7.507215751665414 8.625755016731718 7.177832472801333
Co 10.021409030438193 9.554448340203779 9.803166157485716
Co 11.536230393690193 11.235235808507454 10.457420326541587
Co 12.039075451673924 9.764763879659796 8.655705147995342
Co 9.529006746750227 8.0130636168319 11.452917161431605
Co 11.794596902667609 8.932509762847644 11.13326974246554
Co 9.69775968286094 9.231091538997783 7.482013134657355
