15
Energy = -79.0753773 eV
Co 10.510275611529009 10.597007886876938 8.672437525279038
Co 8.172038539185246 10.150229707143657 8.480021091969018
Co 10.063862348850082 9.278398496399966 12.607788165380349
Co 6.068768713896405 9.250032604745229 8.356859554316953
Co 7.218671081767164 8.901477054700486 10.273358863365791
Co 9.037446052430502 10.42165869918301 10.668751680238966
Co 8.217138959919 7.8155333846414985 8.476194802884404
Co 12.613259892523233 9.103948137190796 8.956380928118119
Co 9.320203636013066 8.085853569057575 10.789161947990962
Co 11.200321926495898 9.639221068321778 10.679433199706324
Co 10.516038212290566 8.272103758997151 8.844044134960859
Co 7.3419337097643265 8.767800506667625 6.58720679324059
Co 7.858911967601806 9.384791058783268 12.381961744393623
Co 11.737840974660575 9.753041176169171 7.005550405864598
Co 9.557966621136758 9.103452354907072 6.930487246323468
