14
Energy = -73.65640321 eV
Co 10.441569137786272 8.524201489014898 7.185220664255827
Co 8.306186661145786 7.500263413807244 7.2186106239297345
Co 10.113931501688882 6.51154849196903 8.379528763224428
Co 8.631011268970212 9.590574362238092 6.1417171784893325
Co 10.261270080443794 8.542420370236638 9.448557070510795
Co 6.4752155674735 8.672269668823594 6.278323037789438
Co 9.421900403783788 10.342015196498284 8.147038694644866
Co 6.109457446949013 6.66254972308795 7.464666692180982
Co 8.802819726363023 6.860571598390044 10.206279127619899
Co 7.935173464265985 5.570192181359965 8.526154858209422
Co 5.657126370011688 8.716252598152193 8.39615011594979
Co 6.51810788837092 6.946451431520077 9.68451837668385
Co 7.938573752906083 8.732027585415748 9.031871648879756
Co 7.104713850807498 10.428250238692392 7.615817867160809
