19
Energy = -103.26758805 eV
Co 9.014152307775184 7.472643727644269 5.649766535538159
Co 9.392338184377987 9.746682034007383 5.438322139585071
Co 7.290054507497242 8.871620500502866 6.314124527413283
Co 11.154643383313402 8.337051618860023 5.781636366614259
Co 5.5166672402949635 7.641892471156144 7.096947076700332
Co 7.696458810793774 6.826292125743833 7.456058856786345
Co 8.678127121094118 10.09063969647886 7.621984694984145
Co 9.981542571587172 7.937246702078192 7.719490593591646
Co 10.93661123037768 10.02858576163516 7.294291473900116
Co 7.055078199412472 5.3078741183149845 9.048440049005553
Co 9.174998403725501 6.319945775976615 9.293448074824527
Co 8.140522653954587 8.340320158848916 9.162719342890593
Co 10.014272024289907 9.68921723239156 9.52860183336682
Co 6.2932924081353985 9.50813794703089 8.356834721921794
Co 6.012006478429188 7.362856759977876 9.304286443320837
Co 7.924942897803745 10.656601662273866 9.7998829108951
Co 7.524859341905386 6.647449975561543 10.886235977286418
Co 9.184623186871262 8.183693444863898 11.18060393315934
Co 6.950536020591693 8.966975258883172 11.0020514204454
