18
Energy = -97.96413739 eV
Co 12.3057070493418 10.991642878500823 10.341814907888361
Co 10.48222462595552 11.93884167054439 9.299156469951708
Co 10.52236325284071 6.746259253789556 11.293079511403542
Co 7.623504085567411 9.325886024620905 6.855597627454622
Co 6.923305377308025 11.265392905292941 7.93232997606326
Co 10.22610007253546 10.904781969477897 11.353838610454286
Co 9.430183289039558 9.464809782473896 9.682558024409724
Co 8.44962654558958 7.495763903145252 10.505707056631545
Co 7.169201501386065 9.305856384953433 9.15301197980019
Co 8.232043689096216 11.481978713529434 9.779898414767661
Co 11.394655623775193 9.884292278287447 8.528205558814841
Co 11.456679874916594 8.88909126607459 10.75601751839414
Co 9.585303308181006 8.70879947714429 12.11261022672951
Co 10.434742093915737 7.44289554195198 9.142990119324338
Co 8.24840447624576 7.458134853261206 8.192362786872767
Co 9.201590245119007 10.78830235850643 7.703047663689722
Co 9.899005029973887 8.642333947468412 7.13267495285608
Co 7.792381860261562 9.861375748760201 11.387987558639997
