18
Energy = -97.41165025 eV
Co 10.481779666080547 9.448996412611653 6.512381884885625
Co 9.242238545380014 11.216337938004362 7.639085531803189
Co 10.903772571578164 10.040359550850578 8.848653808656548
Co 8.893785379481805 8.984343798958106 8.166347838994126
Co 9.730497949138329 12.089281483279537 9.643044598629608
Co 11.02343833927545 7.7476244867774025 7.844848462511459
Co 7.052807684150824 10.105110842872945 7.175286866673282
Co 9.134099167363239 7.357355912908877 6.524913367636628
Co 7.6855657918237945 10.722087424587718 9.34741938260198
Co 9.486579163995223 10.158384968649735 10.681682529597998
Co 6.950985680928324 7.768511049182455 7.404224723975596
Co 5.950448775898981 9.129894117077097 8.964522593600293
Co 8.68013712751977 6.697420107570406 8.761667905101948
Co 10.78097306677054 5.965923458479537 9.215523021586463
Co 10.202039340625007 7.966710331947701 10.091340501234502
Co 7.7668448958725795 8.428644323666468 10.241077244972479
Co 9.155812378329818 8.344458440852963 12.042826596006913
Co 6.417284684860906 6.790242386873739 9.377038758999099
