17
Energy = -90.18940651 eV
Co 11.62379760997333 8.25667552373761 7.538411643794108
Co 7.380925099728159 9.663291978330271 8.121519957999311
Co 9.89647978814574 6.976408619753702 6.694430403447234
Co 5.063705762705664 9.448387532102565 7.733512811522695
Co 9.520862696421162 9.251131918525147 7.136422003490278
Co 12.906658116020724 7.1082530768367675 8.979621855462087
Co 11.218800281216229 10.424585812664079 8.235634449002
Co 5.808804166201841 11.350957012668832 8.62329984694175
Co 8.598405099190224 7.590355310469312 8.497810401369993
Co 10.704323460634658 6.6114306592278425 8.888424696747492
Co 5.307712873877812 9.587650275947977 10.03224668761681
Co 7.410058108364013 10.86694130265885 10.118110355735254
Co 6.184057941276168 7.742296364830764 8.665580249161923
Co 11.506144049902757 8.677421196030073 9.813545965172844
Co 9.408082109680363 9.671717744698592 9.44326761640322
Co 9.543573261392561 7.660801866871 10.660451743710338
Co 7.4281451959970815 8.622229425375085 10.328244933150968
