12
Energy = -62.08382874 eV
Co 7.31057885606557 7.715196013240094 4.897249728674808
Co 6.1272057114522855 9.317135683699897 5.81357238751489
Co 8.499341621519577 6.45291662646679 6.486011339360467
Co 8.401877343437647 8.781764189939258 6.614074992397124
Co 10.034547268160237 7.570340643860267 7.726200162724505
Co 6.522899743759762 7.541853071441885 7.216626311801335
Co 6.7618105212015225 9.7231443509777 8.033572572392297
Co 8.60601693965305 8.840154064503395 9.117947535450295
Co 6.456134320268262 8.001889325717437 9.480029797132056
Co 8.210986545981422 6.56593738770882 8.781298251494196
Co 8.1903696874877 7.608234848517036 11.009703835837401
Co 10.075612271553222 7.078814624467529 10.021093915760746
