10
Energy = -50.75761487 eV
Co 7.781851914381794 10.176452744690183 8.317596220887522
Co 6.6911288879834325 8.249993424202781 8.661705724127913
Co 6.869350460474859 9.047557470683294 6.501088985661068
Co 8.177001211451941 7.263055682365737 7.246900995654762
Co 9.955037018834 9.795301644698537 9.120368518587641
Co 8.184289447631462 9.155823375428957 10.3936670949514
Co 8.506977073860416 7.08914571867746 9.579114192571547
Co 9.211038046431865 9.233204452472851 6.9129845098522384
Co 10.243344627754983 7.705758366927175 8.358608669015343
Co 10.213661176067673 8.117386984725691 10.741645223818635
