16
Energy = -85.38565472 eV
Co 12.85537457985736 10.491577493530162 9.372973354409645
Co 8.671333972865016 9.385341596938652 7.976798329516565
Co 7.454576614516113 7.513816813402709 8.602951308641739
Co 6.585900667087518 9.839696284498478 8.635583795394567
Co 7.711344781885819 8.937552388023756 10.385202295465929
Co 9.79235213088556 7.937260258098895 11.601590544153979
Co 8.054050193008154 6.724721389358539 10.740457868985258
Co 11.03431551634309 9.587613344613288 8.316354194370545
Co 9.788428226254556 9.924663894298787 10.41636396596205
Co 10.91572878109117 11.746719270328457 9.29154761558602
Co 9.621619562836349 12.123807242116744 11.093563967721625
Co 8.363374892731288 11.312881418024762 9.255173175624266
Co 9.713185599814775 11.298561376968205 7.341733109527084
Co 11.699770376695913 8.648614379232798 10.336466363797609
Co 9.660602486464425 7.726750605673326 9.321936656021832
Co 11.672507411443592 10.816634864516594 11.294633021238269
