11
Energy = -56.35812884 eV
Co 11.567598317993623 8.699212896549739 8.793785056696754
Co 9.987903631782201 10.293556226248487 11.995487221990029
Co 12.042256855467041 10.958456208933068 12.807542294146318
Co 8.098731081009783 9.430976294694162 10.969866937771389
Co 10.337296196645534 13.12562743998519 9.310972736193532
Co 11.979435212019176 9.872307645290926 10.761308330577716
Co 11.226328176145818 12.103307599441163 11.079367284668502
Co 10.216255213084654 8.438030590751893 10.699494525106658
Co 9.12133559722156 11.392403792711358 10.241293960091538
Co 9.368936996328513 9.506574757405271 8.993791408438318
Co 11.112030643480796 10.965805082032322 9.00173327659202
