13
Energy = -68.69623057 eV
Co 8.235364899457096 11.2820559849276 9.407329603128026
Co 8.235358899457152 6.502077861226362 9.407330603127976
Co 8.176145173167841 8.892069423076979 9.502280993350755
Co 10.09858582032746 7.687124324851203 8.777552732758645
Co 10.098588820327432 10.097001521302412 8.777546732758575
Co 6.925885905025991 7.668388816882613 7.870844678649841
Co 6.925890905025988 10.11574602927117 7.870850678649656
Co 9.610856979671697 7.725557233650024 11.020840606434135
Co 9.610860979671617 10.058548612503861 11.02083560643414
Co 8.744969647249722 8.892070423076929 7.18963748315504
Co 8.761156697435197 11.252301737534795 7.2133858125392205
Co 8.761153697435226 6.531835108619013 7.21337981253915
Co 11.412007075747342 8.892048423076794 10.325010156475228
