17
Energy = -127.6803153 eV
Co 8.71817593268695 7.207283500580866 7.053325807751318
Co 9.241083935897962 9.301448857276341 11.461815901068663
Co 9.707971600617169 7.208396229591287 10.15491183468785
Co 11.1022466944182 7.639166987242988 8.139371031475463
Co 7.316254613110698 6.024901954362151 9.375374633752717
Co 12.438670825759885 10.185678445599098 7.667848196084118
Co 7.8942123697377715 6.747041565630411 11.68315512046742
Co 10.932348417572845 9.7223805096063 9.51130733081361
Co 6.462002048327712 7.534652961861505 8.051564645973736
Co 10.310257290071016 9.457718748736879 6.786922133007731
Co 8.743100252029388 8.829476293731066 8.729973068987473
Co 10.633383812151 11.662230943447895 10.597766748110956
Co 7.003172977696532 8.609217282491711 10.38155533933808
Co 9.864674137864386 11.417915466905225 7.903873748052122
Co 8.416232393543872 11.047733475083623 9.753752936945443
Co 6.2149226932568356 10.308680338346342 8.974460857194613
Co 7.872965987399656 9.782684794418682 6.556828945556841
