19
Energy = -103.95821595 eV
Co 11.087056359754698 8.510282101554106 7.9249991870162875
Co 10.522992149284889 8.536772140538904 10.253969771741962
Co 11.080251043340741 10.490744882516458 9.045918151352295
Co 10.3572921349217 6.485037668263938 8.721769824225177
Co 8.835743886521561 6.4623781129326305 6.959099158735352
Co 9.354311171846623 10.493051879759815 10.63471321120965
Co 10.425251133985466 10.547294949868558 6.769419630601989
Co 8.840648381297298 6.877378115055927 10.350638721746067
Co 8.648154383012782 8.617351785328257 11.781916811528502
Co 9.346313067491394 8.54228497162601 6.218523280199394
Co 8.825972916441996 8.37585255421214 8.514309239213237
Co 7.235442607465271 6.641122523175962 8.583211025815418
Co 8.833189047721719 10.730390662123533 8.376756834392014
Co 6.645593222277642 7.449728605007926 10.83409515556407
Co 8.05336691638583 10.396651936329455 6.197386720128778
Co 7.3609530348175785 9.447370881328162 10.022360544420389
Co 7.0673383234896265 8.303947950677367 6.856812365917505
Co 5.700834674339636 8.291413956643641 8.82684300434736
Co 6.5843507039187275 10.274221002939878 7.977992441836972
