18
Energy = -97.74891457 eV
Co 9.345096623463425 10.37866597599215 8.023424640425306
Co 6.322551310415171 7.255691381363546 9.197542576754635
Co 10.70143050653251 10.002353824593529 6.191195604262074
Co 8.77121371455528 8.763836917703527 6.3683919585962245
Co 8.318045042392855 6.176725761815161 9.615272085374183
Co 10.485760179891487 7.224089163780877 8.964588967947451
Co 5.786959142522083 9.426083831895847 9.76032593136314
Co 10.7929275529973 7.700962687910966 6.704230822284222
Co 7.665931129079862 8.310221250535236 10.82879465535555
Co 11.306868876315376 9.264548756104508 8.301731432107148
Co 8.416511159504703 8.26184907512699 8.631623988699028
Co 6.9538312305061325 5.386041614723075 7.898324223644729
Co 6.923583215436328 9.822205360934683 7.735302819430372
Co 6.8085421495341505 7.477858169972272 6.880957981342517
Co 9.815868206614168 9.288605877269402 10.200374315943879
Co 5.01389371459673 8.56491031329533 7.727977480017374
Co 7.844987423754042 10.470898936919905 9.841255190340938
Co 8.915513677591782 6.413965955765737 7.318200181814301
