16
Energy = -85.46389046 eV
Co 8.450220382998994 8.646261608098952 7.638882595184086
Co 6.556100783414216 8.291782584634968 11.238724962323198
Co 11.566514348772179 8.585833492041134 8.488216319062262
Co 10.204042132706514 10.017242943459765 11.611845993881321
Co 7.77929277270296 7.352141666066237 9.504360939543462
Co 10.462463477026521 8.058491793496772 6.501252818929185
Co 7.996960736218362 10.116176166539585 11.062682716514516
Co 6.796636671862326 9.394020593771357 9.196438926514357
Co 10.870694379360799 10.887799176364478 9.498130259105572
Co 9.625054574899032 8.84577138544216 9.690891595008553
Co 8.725207053583107 7.976384397321755 11.63166001202726
Co 9.85556710133552 6.937279140924107 8.357599764107597
Co 10.198413988927772 10.159474002706013 7.323685585959603
Co 12.375237202579513 10.56419832247063 7.829470047095625
Co 8.611298709553406 10.89482664760382 8.939504783122251
Co 9.400148262063128 11.997068644243495 10.857744744680058
