13
Energy = -67.67749101 eV
Co 11.96308128766718 9.564568782234518 9.691587696230687
Co 11.949654526773086 8.147020663418044 7.882171711609771
Co 10.51848175850483 9.914765649022703 7.967414270085219
Co 9.649293920579744 10.188172561969683 10.153758001248649
Co 10.240792624070723 8.058385297743053 9.4193724268878
Co 9.623381354128195 7.870668809424827 7.188716972815954
Co 8.272449884868772 9.267980762178146 8.49666803143975
Co 8.206144454430126 6.894135998961527 8.791727488323842
Co 8.219399169693146 8.423360483579568 10.727068820412427
Co 7.048022140781445 10.304780231937986 10.156079098666506
Co 7.033280903913052 7.9080249975238 7.10361785036895
Co 6.174001240051531 9.964545022274043 7.964872393765629
Co 6.3112997644021345 8.198418609449385 9.345788675720572
