11
Energy = -56.14161912 eV
Co 8.098514208501937 9.668873625059453 5.812808673987913
Co 8.648958633731105 9.726550723062395 8.135025631719715
Co 6.557081046107169 9.051588181932786 7.449994981710446
Co 6.864906530318997 9.287384558813178 9.72333072540068
Co 10.168692745527629 9.31410686618967 6.4067227048692805
Co 10.362462350696333 8.004799009676473 8.326063545956618
Co 6.968815532371943 7.214941752783259 8.736152946063122
Co 7.331741095443504 6.901267257510873 10.883041564132002
Co 8.520167721978583 7.686569945417573 6.984453264303618
Co 8.832123762082057 8.243058175660286 9.998943986749495
Co 8.98524207980577 6.239565610459498 8.882167681672978
