10
Energy = -50.79120659 eV
Co 7.777183342927431 5.3668418059568985 5.9178698836925
Co 8.686810093070559 8.087433347995741 8.655550393977753
Co 7.077108320761552 6.459805494969472 8.16517916137227
Co 8.500678547818266 9.872440978224558 7.210390871879503
Co 6.730730202002202 7.9928891747594815 9.899579386982877
Co 6.581445155666339 8.700092176698123 7.698391281768637
Co 9.191334452473843 5.934404128613702 7.578760433213176
Co 6.091266507946888 6.839698392023436 6.169558530775755
Co 7.598363085328907 10.038492893258926 9.320158075363906
Co 8.224852702016086 7.66594152294409 6.4121432341910705
