18
Energy = -97.7604331 eV
Co 9.788225570823412 9.969247044042534 6.895295642140817
Co 10.984531911493999 10.580222461864118 8.989286487091963
Co 10.72293838575353 8.383830545955876 8.365045035232935
Co 9.181578977692048 11.9759967942001 8.842633997699153
Co 9.981829488410291 6.2292756625926184 8.57729843434056
Co 7.7311481126568795 11.030367270113048 7.2897780162319545
Co 9.643506989782725 7.4717229369269065 6.558286588662668
Co 7.791761635390293 8.663007006346962 7.103154768618661
Co 8.781103730977451 9.678848653513436 9.002017988120022
Co 9.871599541154465 10.116852108959545 11.01415403512818
Co 7.903609875328012 6.338040390582725 7.676029847117596
Co 9.55660553757671 7.8059873388521295 10.407931485088968
Co 6.437573972860363 9.996591403777405 8.868949801031148
Co 7.650116398697786 11.222635031443389 10.36303255116231
Co 11.654957510683337 8.813295023785807 10.4198642595001
Co 8.240670149286895 5.993298464106268 10.075371129671995
Co 7.237626452621782 7.84735979637796 9.259841733171855
Co 7.742219648453363 9.095619271083034 11.158550237580863
