19
Energy = -103.54000059 eV
Co 10.059021865300373 7.105550084283023 10.029980477861947
Co 11.488107486010616 8.933874592190769 10.955738384393385
Co 12.137796673483713 7.65764528228105 9.166769881367335
Co 7.706125774850466 7.331713425869083 10.485680024802717
Co 7.074367956412482 9.79114138987619 10.685752297904589
Co 10.295662472224823 7.667405942644029 7.794683188297944
Co 5.893716909287906 8.280857164907065 9.435335112998295
Co 9.255273378654927 9.178997931076863 10.625744791268877
Co 8.479397262902323 6.248846781216164 8.490368413286204
Co 10.920054184381762 9.625514715545721 8.856840303086845
Co 8.145824859080342 8.565554518287225 8.5276255955726
Co 6.5620359839610405 7.233607761888439 7.496723724327466
Co 10.388140257414193 11.186532958061903 10.473607868362663
Co 6.351939718085455 10.36967138185298 8.555458673848522
Co 8.514509842536723 7.6117206288997625 6.342387273729189
Co 8.527581149234711 10.889327390529242 9.023169887273216
Co 9.391246263927943 9.869381119167658 7.022782016351962
Co 10.440908216493888 11.73673378325111 8.184875063969624
Co 7.113638366684378 9.430925921012761 6.6260354892982
