16
Energy = -85.36181975 eV
Co 9.429562518084115 7.166296978627811 7.31165313165504
Co 7.565500971134172 7.422342743735729 8.662925012295144
Co 11.141955088137983 7.993885869555617 8.6797266884379
Co 12.436912595192053 9.418140459518373 9.890081727974593
Co 9.587121889726538 6.5017546565655255 9.482279407476652
Co 9.204504188649427 9.244633775513964 8.334972474170188
Co 10.932960184929826 7.8937995429261285 10.939612238139437
Co 11.113255635049578 10.504107943906668 8.373437842462621
Co 8.6027538341841 8.347551763956721 10.479016081974017
Co 6.963903878363849 9.62367746750062 7.921333576476948
Co 10.237997605879903 10.037261622776095 10.482023460978892
Co 8.690442734614237 11.443481637294628 7.748708662442726
Co 9.901685035912688 12.179481458059401 9.447478806837736
Co 6.371429482488621 8.903724696045648 9.946526861409284
Co 7.969081673577543 10.627329505888957 9.807707156920907
Co 9.066278443488322 11.688133528674125 11.496997034142867
