19
Energy = -103.05883523 eV
Co 8.456362963269 9.26681672024993 11.946740882450923
Co 9.170172187758173 7.274778870028286 11.202969583483963
Co 7.126841000360595 9.812868750603517 10.054646304105164
Co 9.288451214445127 10.002097520613507 5.903238537710417
Co 9.098832029133789 11.344711147456184 11.301105786559473
Co 6.922880754142285 7.776505046648406 11.055063901258453
Co 7.956715308120358 9.87786428478038 7.699926804019742
Co 10.158999182363264 11.016871162280353 7.785123693958084
Co 11.740827373112511 9.562023923869337 8.93790348175757
Co 6.374212781824891 11.25063030436538 8.501893108393212
Co 12.62429358107448 7.886780819782045 10.140579333056829
Co 9.408917372494578 9.682017754099004 9.605706831101415
Co 10.528136202198109 7.43075387307983 9.436258457633521
Co 8.483041414918617 11.793169334528994 9.14404054191797
Co 12.140367052658554 7.531439284433248 7.822580232008632
Co 10.899886013572507 9.138514389584053 11.207180623756525
Co 10.976975736828136 11.428989340462456 10.050848721716028
Co 8.122959455502999 7.837214034664883 9.070928346885244
Co 10.121155145887663 8.619016845109474 7.437824642996287
