18
Energy = -97.23531171 eV
Co 10.875876827333723 10.535328355362253 7.01076375619942
Co 7.949055933340797 8.800017870868093 11.728978387261398
Co 11.438430059236001 7.6704756735149955 9.871718785182283
Co 10.213256632528678 9.03168431444786 11.154910035334474
Co 11.133773558198774 11.098638675481071 10.383366227176303
Co 11.807157626371291 12.056375252230504 8.372505958878167
Co 8.940204719371543 7.522054904761472 9.952062076114416
Co 6.648683829614159 8.096481893944404 9.857509215984054
Co 10.467262987430365 10.742953135468007 12.544430117206337
Co 12.370884863209193 9.867571108034582 8.893530022648482
Co 10.17645544273574 9.129392745340692 8.670220994763886
Co 8.767732333879984 10.918908698926424 11.015364686782734
Co 8.649948579573183 9.985710143693892 6.950705558348905
Co 6.479338421378761 10.226684450604631 10.841279081477687
Co 12.468786053315892 9.355771359111188 11.119795411557675
Co 9.57200095248055 11.478311819130282 8.67856319169504
Co 8.103951007549474 7.901587396956426 7.891631473563728
Co 7.940272360956779 9.8112329936622 9.129552748940172
