19
Energy = -103.55918154 eV
Co 10.154003731312333 11.281977374357743 7.180403969280369
Co 9.889081566690791 9.129201120537372 8.1547836657939
Co 11.99557589802618 10.061126350221054 7.895168037601626
Co 8.57980447435166 10.962361705957917 8.971612394810071
Co 7.865730187524562 8.709093897183228 9.212246267853821
Co 9.406439058518528 13.137170780869015 8.708075537863257
Co 11.748938013196137 7.776758732801662 8.561472487162892
Co 10.909631572272021 11.575194678863712 9.305359504416383
Co 9.827679238281087 7.441415874040197 9.90782486905508
Co 11.257916644571559 9.39229427337905 10.08851542100665
Co 11.85311911707928 7.442725082809689 11.045382710559991
Co 10.351454238472744 13.041051890961183 10.934721755912197
Co 8.094174671463303 12.602704356327601 10.536423148473137
Co 9.963390655812033 6.971681573111706 12.201723596275453
Co 7.164008323299899 10.350926825730776 10.687081403939034
Co 11.811897030581092 11.173378443949156 11.52451502304621
Co 10.796757723918846 9.162808874999277 12.329199236275642
Co 9.477849119211147 10.904273455998267 11.196533883450154
Co 8.71334925865352 8.744655231138768 11.419757610461376
