19
Energy = -103.70190719 eV
Co 9.636561987608557 9.191128065344568 6.018159207378965
Co 8.96714795871965 11.259880470014506 7.078070261508774
Co 10.287755047627547 9.690881227197826 8.127413680280151
Co 7.408312490806599 9.662882896839458 6.676274775132311
Co 10.826009458006068 7.565943753769025 7.441452258479257
Co 8.50217874205972 7.580804979397467 7.168593095488312
Co 7.100278660710676 11.206509246371356 8.531637123011384
Co 9.203974491525257 11.487168508308747 9.405390021357556
Co 9.483408894646528 7.234151408974673 9.291447407133559
Co 7.9391001878403875 9.084125374951734 8.808484611673622
Co 9.684029686622017 9.36257294778274 10.452619124915604
Co 11.492638018032418 10.732581849514428 9.947249991309533
Co 11.553551101290418 8.292688172370276 9.627425455725295
Co 7.901963424243852 7.995222094688265 11.024925893161146
Co 7.6445046097365585 10.404943878043 10.786749091705436
Co 9.907437105984858 11.323137017688197 11.646842547789078
Co 10.162989843775359 7.404376505072561 11.56195887260959
Co 11.395791896903347 9.489823323982433 11.955603084463098
Co 9.10077991557068 9.22959180139922 12.648117018587119
