19
Energy = -103.88186364 eV
Co 12.445477816393632 9.050446911761387 9.036827528634904
Co 11.693804127864823 11.15612470540886 9.08580157165904
Co 10.655211139586505 9.537379190819523 7.650053879137753
Co 9.893647131073724 11.844200993188405 7.640094760377547
Co 11.081825929801257 7.246886729511695 7.850644728242957
Co 9.450962717246124 10.55754403758025 9.504087392881136
Co 11.13237186593734 10.074675579843452 11.035173807126139
Co 9.07239713453966 6.527812869496098 9.027309167024516
Co 10.481902932584818 8.233581101964441 9.813060915095498
Co 8.374007165835874 10.207609227143886 7.255011647303969
Co 9.092645645287462 7.902587220171513 6.980862345403949
Co 9.611370356595748 6.6889984078038065 11.281619389065165
Co 8.997148262624906 8.934405656013752 11.537153479607134
Co 9.105605828779218 11.155481345863679 11.741221717029674
Co 7.6468645068912044 11.780649418554367 8.8219509673159
Co 7.3096298184379735 10.138353465515532 10.541947694466558
Co 8.103733220110131 8.576342460118939 8.96258974655569
Co 7.525186241395591 7.3401251547349196 10.753821283743775
Co 6.3528262774793545 9.991919385036033 8.416754468099427
