12
Energy = -61.74208884 eV
Co 9.162294379974648 12.981717041856028 9.011037530553022
Co 8.00419707757358 8.959281317718027 8.823147715333317
Co 9.774696692449723 11.662771112294072 10.918529405093219
Co 9.334103772568923 10.77442601151298 8.82427971331593
Co 11.250978061087388 12.449703762132371 9.361218411398502
Co 11.713507027323272 10.504631706895099 11.265632577757554
Co 8.730104762355511 9.653341680744477 10.89254613335517
Co 12.379871954927488 8.417420324040014 10.171862560994258
Co 9.888473714115392 10.406944616548241 12.811799689547168
Co 10.155611235626022 8.50656678835985 9.39968455541077
Co 11.572109747460306 10.219065635966272 9.030534476181325
Co 10.618164315277268 8.585458607310514 11.612814173550449
