18
Energy = -96.95654325 eV
Co 7.468274788210039 6.384787554225845 10.445623648347768
Co 10.300192796092695 9.087025020128648 10.324518394690784
Co 9.79228182385657 9.942966598155397 12.405476359105771
Co 9.941880181603464 11.656399702845533 10.845613366236885
Co 6.4395260289867755 8.474792268881716 11.167869406435234
Co 8.122622529622863 10.202333627225117 10.689233272679248
Co 9.937052816008721 11.628252959730917 7.147307385037352
Co 9.045101888280433 9.906435907793888 8.357579412498877
Co 8.835494582154785 7.652318435345458 7.461197622629158
Co 7.615713484121608 8.303943367669026 9.30130516657119
Co 8.638689495271878 8.068171406587231 11.555206777565468
Co 10.917434367353659 8.537428877881508 8.055956662234564
Co 11.853784610271859 10.280895797645602 6.830317132888792
Co 9.595092302789185 7.0247832666164465 9.5500386429732
Co 8.595911670755921 12.016782454411613 9.123317667473525
Co 9.829872832993571 9.517505783812332 6.222541075217391
Co 11.20282688479803 10.778086443665604 8.93882855780851
Co 11.837151260338413 10.515012589060802 11.221356807614164
