14
Energy = -74.24801258 eV
Co 9.594150279174515 8.623576734054321 10.762534727711051
Co 11.965230226134754 8.53213180877425 10.789507295522494
Co 7.248719488101246 8.692941969477744 10.684166547137645
Co 10.874966967798853 10.638310686793178 10.566280389292235
Co 8.464999090161657 10.712852725390183 10.494093808872199
Co 9.727677466012103 12.668971244850994 10.314656753250015
Co 9.368028759139603 6.390752202679596 10.10687420084961
Co 9.719255268181318 9.828708933562188 8.676589862967262
Co 12.094885270172135 9.703314527558843 8.863589180204993
Co 7.215613796425898 9.89961821707306 8.755503263788706
Co 10.9357628373726 11.838414494379098 8.589422952369912
Co 8.604998667551481 11.893057738889118 8.506459972734103
Co 10.850053945121937 7.704141671332572 9.013188569960663
Co 8.342942938652037 7.8804920451848535 8.884417475339111
