16
Energy = -85.09469036 eV
Co 9.58220002268422 9.596109484817859 9.83559547698417
Co 8.433499494214988 10.345724896910152 11.707181642684555
Co 9.561864217984029 8.249205021439469 11.708176771921876
Co 10.80635303995678 10.246918713190917 11.698807596840387
Co 9.712814787134205 11.894651644615264 10.261402094044083
Co 7.628739274819411 10.74190958741348 9.357220600879954
Co 7.546278440191984 8.543944866970579 10.256840209499908
Co 9.564490850114208 7.318853504813414 9.353341429213263
Co 11.532639583688184 8.362380934265683 10.237101472345957
Co 11.587544155941528 10.689738057609805 9.355224326608411
Co 9.620811642854372 11.059347654250166 7.991625659345184
Co 8.342655316628065 8.92148595547952 7.960028633703866
Co 10.784748622963734 8.837932048630464 7.9660311498667875
Co 11.004142259068951 12.755426250487025 8.631236716021101
Co 11.650427411171343 6.824232150156524 8.606288451347128
Co 6.169438480583996 9.140786827868336 8.602545367610936
