15
Energy = -79.60779695 eV
Co 10.409548524892427 10.587978296029208 9.93364561040264
Co 9.088366840435382 8.95530757840235 10.880248575701323
Co 7.886784044882587 10.455341630250738 9.525809306861678
Co 6.723431579091246 9.310845852808704 11.113259779321561
Co 11.349618298634041 8.427548893598813 9.814599048224128
Co 9.48700305383009 9.048869837720638 8.531985393598713
Co 11.550143262408206 9.724880778323326 7.884796044900888
Co 7.380776000975199 7.998842078339234 9.426288797982508
Co 9.540108547872961 6.947844601324586 9.504537555888973
Co 5.765130110898473 9.638776441719118 8.93977937756189
Co 10.99240984175964 7.460546577091946 7.697116474998815
Co 7.477810949238604 9.427421309627526 7.361948546436619
Co 9.735929248778454 8.834902724214551 6.282299503480965
Co 8.425638371964965 7.27901039241927 7.33664013817653
Co 6.0747365865255745 7.642824549330969 7.652530929738148
