19
Energy = -103.82130467 eV
Co 11.300288752194694 10.733495869718677 9.753752019701782
Co 11.161191057355957 6.696005643598578 8.704443595785108
Co 11.417831428287009 8.115282083422754 10.475696319340452
Co 10.89070411491871 8.968295114674259 8.384988389577371
Co 9.077533297935704 11.587683174155442 9.778687073053922
Co 9.60263191979151 9.09703196104393 6.441382588768109
Co 9.263677963227574 6.11950670659325 9.857175853541946
Co 9.631039397785749 9.538796706290235 10.737963015507905
Co 10.098410614015044 11.0956701808228 7.742346079833545
Co 9.578228468559573 7.4490539685881165 11.682290081969334
Co 9.098272205725674 7.2878372020125495 7.873230954891622
Co 8.562040270213508 9.518958044296816 8.56723181073924
Co 7.360029722137581 10.148183841714454 10.678188973804474
Co 7.847373451527597 7.898095234432204 10.218945350144146
Co 7.971864110048065 10.699827554623418 6.644869604546944
Co 6.987275911461944 11.251564269597438 8.707176258937654
Co 7.316548194979488 8.41118566538039 6.86036655193672
Co 6.255125560450539 8.971368437086 8.863053129225717
Co 6.972893940322044 6.73231020023969 8.478987832594873
