11
Energy = -56.3206961 eV
Co 10.640364090819606 6.774391206234192 9.546025117214848
Co 10.198000723379842 9.136692653116514 9.717688469342647
Co 9.226149858648695 7.896313525741386 7.996880769865557
Co 8.646879933370471 7.429456009924484 10.289588178890332
Co 8.727747147560072 5.75534968801972 8.715163861109291
Co 7.055131957091266 7.374095417508514 8.468941433884272
Co 9.601694807172318 10.242213640546792 7.699605476613978
Co 9.31722463725401 11.377473869125819 9.590420893993189
Co 7.933728849110081 9.466938580860534 9.258042995378249
Co 7.498664270758397 9.257291372255764 7.026903798849662
Co 7.624838142735423 11.381786104176765 8.003479036029693
