13
Energy = -67.65754083 eV
Co 10.17205190297586 12.001144152641256 6.946757943114402
Co 11.678429015854425 10.672542494326061 7.821017264743736
Co 9.46185114995043 10.257798285648208 8.325970009179718
Co 10.820377163201158 12.158564200161132 11.431209184831426
Co 11.237555738702094 10.290781226245405 10.09997057432971
Co 9.136826130216201 9.077766917833497 12.198515081874826
Co 10.268569769172524 12.271324652540388 9.165758058646043
Co 8.94017201039331 8.54611462678843 9.865665047311213
Co 10.88803958864372 8.505869200546126 8.617367413324935
Co 11.171400557953886 10.079861372147413 12.475314839239298
Co 9.027657991405658 10.785323136894785 10.61453278356026
Co 10.8913093458734 8.232415577545376 11.021780825206944
Co 9.271181570852804 11.31754624449441 12.861853718429085
