19
Energy = -103.66724103 eV
Co 7.084622364969402 7.426155228313957 7.443026628870457
Co 10.953581486055226 8.79219025949053 7.318998788007656
Co 8.305495897478522 10.599167531987836 10.725808743595136
Co 9.630068119458883 9.705228443322785 8.956541227176007
Co 11.272082591413486 8.117338282089733 9.557056142847598
Co 9.649230575105413 11.830306825263591 11.984271403404442
Co 10.94801970754177 7.933106890976149 11.975994408531388
Co 11.789969363029874 10.511997335033039 8.741457615741332
Co 10.118814041773017 11.088282984728401 7.202030028857694
Co 9.391419535536421 9.568723020543292 12.711474462041545
Co 8.523807913979175 9.293513327126098 6.977482431231535
Co 6.330371764107092 9.631982527144135 7.196759724615416
Co 9.15828107673784 7.375851167254789 8.507428157620843
Co 10.231356169624414 6.3121307405749585 10.337396936358548
Co 10.783800426682665 10.079208508361138 10.985763034422494
Co 10.006475642258355 11.894637757816062 9.600343946314897
Co 7.86238549412804 11.098442317921428 8.384517113354628
Co 9.047034942665197 8.23003761759513 10.804154915988116
Co 7.376057696123621 8.897234915586147 9.132209476863295
