12
Energy = -61.84676646 eV
Co 9.217187010488551 10.516006975368962 11.539862799617259
Co 11.48652511701718 11.03097680236176 11.561505227281291
Co 9.96719375692533 12.465616673788375 10.45041785739062
Co 10.769602586652526 8.986607444480125 12.353135438338285
Co 12.17017105784284 12.866697316089882 10.49868166820828
Co 11.82842612040982 9.053634255994384 10.281561072272073
Co 9.6370081441114 8.574413120034704 10.32636642936975
Co 11.365261171976542 11.000407550772909 9.256271762014785
Co 7.459280410943147 9.537794470480751 10.371174502405285
Co 10.539677402856473 9.04141018940021 8.252779029921234
Co 9.11250139607834 10.607519349742805 9.194797403784976
Co 8.206307257982765 8.464227103435482 8.569672836818299
