11
Energy = -56.19013305 eV
Co 11.037899500223254 11.167868435055473 10.921784132929812
Co 8.055274878367554 9.898653106649503 8.894486509025851
Co 9.912984113533607 11.396182910343933 8.977394510346437
Co 11.876196104599469 10.079177247070962 9.013214231928808
Co 11.231406519313317 7.766516212164403 8.940662305284487
Co 8.847772349008508 7.638556237437281 8.836291952271958
Co 10.076493682956723 9.325621694403253 7.74148914025651
Co 9.991901224945916 9.306156934174409 10.118899018507998
Co 8.638986771827408 10.96613459298645 10.921705084170519
Co 7.819127682746797 8.671414983712669 10.802241161670242
Co 6.691598567962231 7.970795492880589 8.981072162123157
