18
Energy = -97.35044639 eV
Co 9.340777519668016 8.81816146288531 7.513011166606657
Co 12.042299794721025 8.48203763820692 10.140588549618718
Co 7.526151716525354 9.401777392081947 9.488411187188897
Co 9.811658581295568 8.656284866050012 9.777474530358381
Co 8.110452514304612 10.73877127512388 7.623323446083887
Co 8.34081565176502 7.035145637068927 8.772811859664692
Co 10.009061285015381 12.200413332927365 7.731422241537729
Co 8.092625835072154 7.5879029282862 11.029232678910084
Co 7.0845107764014355 8.405810550679384 7.401784967244324
Co 10.156527723540147 10.495850825315783 6.313347562484817
Co 10.593312472933691 8.170781492630615 11.949558189820998
Co 11.050729541628863 12.28748750571294 9.84096276890427
Co 6.217209080316697 7.636746720641123 9.505134970032369
Co 11.082288786993916 10.263415874568569 8.527815893639733
Co 11.002965033952854 10.322237202815167 10.986308650129631
Co 8.761140024950151 9.762220871894332 11.589618911628333
Co 9.127689035108233 11.143698382235648 9.646569237729615
Co 10.052059589732652 6.51248639900042 10.503057490507754
