22
Energy = -121.46446728 eV
Co 9.708960218021113 6.900102956627446 8.873331226112033
Co 10.396651861937748 8.303761327943196 7.13820141447577
Co 10.614770201574405 10.157486477349778 8.442573049217037
Co 11.253513693870927 11.279781014698662 13.035895231691772
Co 9.74784699160804 12.36453512558978 11.659232331412502
Co 12.406616141993107 11.527779293442336 8.95224581545781
Co 12.513782495781518 9.4776185570616 7.365958526597244
Co 10.117355297895902 9.322880496799026 12.332945711709812
Co 6.910002716645525 9.877687723551542 9.834382995653646
Co 8.563331778508498 8.08055219880916 10.758716576291679
Co 11.517373134306332 10.648231613636344 10.902423510875114
Co 8.62153446349657 8.905890423864625 8.589972599016996
Co 10.208620797988445 12.280943607508688 9.380537109614437
Co 9.177023654221598 10.330173365184617 10.459875606161043
Co 10.788360026631768 8.422404380014408 10.16365515480027
Co 7.6025055800457135 9.852035938731692 12.105879029617444
Co 8.955743508912878 11.101746284126062 13.351515907889228
Co 11.880360180447838 12.896421417202127 10.933689562573095
Co 12.900557686572219 9.31756497290465 9.571644606499127
Co 8.276321966835209 11.287511419707078 8.546928583398731
Co 7.615532705797297 11.907899779441562 10.819996007098382
Co 12.02299710956663 7.454803455528823 8.479163042074253
