21
Energy = -115.06200254 eV
Co 11.42351319228627 9.971029106120273 7.909204870305444
Co 10.385850141559121 7.684722702777536 8.196718736959923
Co 9.443547284302296 9.451304957583998 6.775514570455016
Co 11.322145819969078 8.904013513345284 10.131482151591088
Co 9.675741484802261 11.638554572279277 7.806851229575878
Co 10.855613743044309 11.271057409766719 9.950251783431261
Co 8.92852701372461 7.385914241065498 6.074547274525525
Co 11.586368476466937 10.284493635759206 11.911390064228371
Co 8.868313837465903 5.815661014493679 7.697419830445786
Co 9.443415211403089 9.746917451507827 9.08168537263233
Co 9.425185625260196 9.994335846211367 11.388619846577434
Co 8.264272483913128 5.874065547315151 9.862873142871202
Co 7.45298586541959 10.329040421596712 7.9430827344055706
Co 8.057519980244246 7.9477164765009105 8.38465751000181
Co 6.521586157586107 6.508308702389302 7.654611918752735
Co 8.319856390368246 11.59856389927572 9.822997673489418
Co 9.23985219192873 7.792709990864516 10.451473672757285
Co 6.971699294701162 8.517396910564427 6.404107594045895
Co 6.473344453927298 7.197179735485947 9.976054932464132
Co 7.295369024330668 9.425796890014594 10.121626897072119
Co 5.732669189250311 8.697230002961415 8.364953141791693
