25
Energy = -140.02338402 eV
Co 6.969741889370582 7.5561993596371835 10.462420515501035
Co 6.537885751673032 8.078361873446605 8.249990490731387
Co 6.873331844467577 9.907501382428373 9.911926856763277
Co 8.020622444829437 6.333383794408269 8.559736416903588
Co 9.298952191980655 6.846198518214889 10.550008971799542
Co 8.493827709825439 9.05624837469459 11.471891576173705
Co 7.921421853925006 9.514925864977787 7.033731443374988
Co 8.634543500060573 8.564302380171348 9.110379637806814
Co 8.386026338430835 11.363771937982992 11.063495425366206
Co 9.300960905151275 7.614062943314866 7.049440489617375
Co 10.353868768770049 6.222374580444035 8.531738023658207
Co 8.990034517777516 13.107875426010766 9.561137245926393
Co 11.10196849070846 13.906470209283647 9.904110960958826
Co 10.00203345346262 12.940734491883585 11.663386392945565
Co 10.172411415971496 10.158448179334234 10.132568606360367
Co 8.470800016000304 11.032866698205613 8.659903029433245
Co 10.759768984818143 11.933211621793546 8.61926177339234
Co 10.31595857970444 10.642572219853912 12.366786967829945
Co 10.235521750937174 9.733079857866171 7.658755290430074
Co 10.55163938324739 8.248635662839979 11.989916996883224
Co 11.096137626206389 8.072191520364042 9.62832830672946
Co 11.71021551807759 11.803302009564051 10.74470052411083
Co 11.673961733327085 7.995137806178885 7.411503067681045
Co 12.261531436563095 9.566320577457274 11.192960903620508
Co 12.203193635960545 10.010876670040707 8.86057576496818
