27
Energy = -151.81539795 eV
Co 12.613268958908016 9.582767012622352 9.422899045461108
Co 10.93735555782691 8.472301705294347 13.12692508892325
Co 10.698477502779648 6.57852420294733 11.754882293779724
Co 11.374227564228176 10.923712355167394 7.766681566600857
Co 11.90272989406524 7.41460872932091 9.876622751726241
Co 8.709480791112378 8.326559573173185 12.92969044029235
Co 10.664369892884576 10.863104479981061 10.002705377264117
Co 9.684475528299545 10.508782264004681 12.192559751263563
Co 8.465227098628535 6.918960578787815 11.122961155932243
Co 8.158381834166073 8.356513884223011 9.183468155437673
Co 7.7732809351588195 9.504797872292398 11.162123614032058
Co 10.022522631657772 8.642737711678128 10.859558489242538
Co 12.764420827720036 7.73625113577104 11.923424926613174
Co 9.942700387722825 12.600304466976098 8.456826139035593
Co 9.794865738499386 6.66896871687389 9.254899476381945
Co 6.781725278856102 10.358627597766073 9.173892817321482
Co 10.59505968345123 8.786619880890592 8.494863290768258
Co 7.642968174038385 12.626361471644055 8.546991618023407
Co 8.903149679428672 10.515227191942289 8.241482243765724
Co 11.997209478973105 9.871833523712876 11.605488407658767
Co 8.478398647186228 11.52235296594066 10.410075591096708
Co 9.091996815142991 7.621279198485613 7.095216418023986
Co 7.297397230029998 9.038876028177077 7.14311931593053
Co 10.128981736148122 9.567931950538423 6.3396899892531895
Co 7.078818625612124 11.326765542523244 6.813011048294158
Co 9.323068837096889 11.81095490527027 6.341685946489881
Co 8.200503924643698 10.016733487816715 5.2742600768808625
