23
Energy = -127.38628129 eV
Co 9.446770081486404 7.290245094920566 9.056401763900201
Co 8.900336668484007 11.38638039778501 12.198182948339515
Co 8.768008491247546 9.257125209170793 7.987937944436879
Co 12.060637926365787 11.221317586915527 9.29467242678331
Co 9.551449914363047 8.379357539679438 11.115429565689116
Co 10.736716031833433 9.233804316335014 9.225375188988659
Co 11.423901544051954 13.324624722490624 8.563018037689673
Co 7.626059316610589 8.454896442003283 9.77526587976383
Co 12.530229331959438 12.064077032122658 11.45891835476017
Co 12.15744901936023 13.803919839672632 12.933523973128798
Co 13.439090175504486 13.073163224877753 9.620750376260085
Co 12.704660789837328 10.23116777149905 12.912735225489653
Co 9.968511532122973 13.59714994862418 12.346640236154405
Co 11.604373671145177 8.284253090318419 12.33805911693451
Co 10.94234652065924 11.767769399225958 13.289992421643378
Co 11.651481188611442 14.17273239368827 10.706316772834452
Co 10.209628011062337 12.399964372825794 10.373801033715313
Co 9.977032945449606 11.355038582962422 8.28439600247702
Co 11.590584056391135 7.345306343801201 10.274800621667875
Co 8.81257162385671 10.41075324821093 10.05157642910867
Co 10.005567409981348 9.643424738330559 13.46061087630951
Co 10.862455580553593 10.325340881745495 11.407919264503034
Co 12.81235673842901 9.37539738910488 10.620348334978711
