26
Energy = -145.05200927 eV
Co 14.25026816032755 12.507183297957864 12.173653448242407
Co 14.083834379612618 10.456092401098346 11.16902318438366
Co 12.878757366161052 10.856084654140982 13.139703378724327
Co 12.08266247234943 13.068440483683744 12.585186390902711
Co 12.791462890231097 12.301982383758684 10.391572807630036
Co 12.326809005065487 8.971683068319866 11.734363503785334
Co 12.366259720766415 10.032586788009207 9.709484490533175
Co 11.09539269362684 11.185971923858716 11.699051948379312
Co 10.731154680599154 11.625062232304527 13.980034366501537
Co 10.727336315349746 13.307617099006958 10.460954836608124
Co 10.691283025836789 9.3043805804128 13.226228211939366
Co 12.370140626341255 7.774522349976904 9.687137302843018
Co 10.737765142835634 7.316326757684876 11.286556962663175
Co 10.454912765050057 8.884010250629485 8.652613617432113
Co 10.566292252353842 11.271512698259679 9.241900632436176
Co 8.755575910674136 7.7137987516850135 9.762043935609263
Co 9.600347237546696 13.010548486651805 12.456296679701019
Co 9.803279516130516 9.334913190700664 10.987981454584913
Co 9.942952809004451 13.221648018683473 8.250476160236387
Co 8.917717091096035 10.744681514646636 12.779354084889547
Co 10.534072174617938 6.561774104677382 9.092938128761592
Co 9.450440748166033 10.94614205601399 7.345288179393464
Co 8.588217167492582 13.932561611433098 10.080406076999992
Co 8.437391990309745 9.962384994552378 9.146800912770644
Co 8.771836382641768 11.743507955717014 10.67043580251495
Co 7.9363778866432995 12.225026731427848 8.57016520406455
