25
Energy = -138.55812377 eV
Co 10.847687752049966 7.58690881252535 12.021075169333713
Co 12.026861865311707 8.365763415494627 8.319963523350497
Co 6.222589876020609 11.98707310153379 11.4640166872161
Co 10.33641065634553 9.838356095900703 11.622870895259288
Co 11.312753129039484 10.484386322074005 7.064914223399148
Co 10.008407666353937 12.040881833669193 10.479669807038649
Co 9.409105621275236 11.499798385490067 7.990413894485648
Co 8.814057135701209 9.943939698455669 9.668770403016044
Co 6.683784242525012 9.748558393468873 10.478726873878086
Co 8.441060665551936 8.434667642803756 11.45317817293592
Co 10.102680916630357 7.898715401806408 9.884384283040756
Co 11.326509732022126 8.24751945159681 6.187485119579428
Co 10.483632645629521 6.726559777476157 7.887236758026292
Co 7.915348233852617 7.96618686692604 9.093805582705079
Co 9.712659916954859 8.92825454876894 7.711774751317801
Co 7.636356551348149 11.95557956233618 9.718531778825255
Co 11.282064042479725 12.55457741360749 8.56196697000835
Co 9.988932008779935 11.927948348694636 12.733350038174626
Co 13.044777037306545 6.971536412390625 11.88577673498748
Co 9.139198555048264 13.62168365307576 9.129604214079308
Co 11.192070808799347 10.33309531473448 9.326152055285391
Co 8.15407531547009 10.919596791023206 11.871924892155244
Co 8.289393666120231 13.26652075313242 11.486334559170354
Co 12.32513503351835 8.817516822795609 10.737348209016467
Co 11.99349521238697 6.623423466741492 9.909772690236496
