27
Energy = -151.88506587 eV
Co 12.87996543370882 10.696820409674347 9.974971326912888
Co 12.05946132067543 7.955061004829787 12.89832396078554
Co 12.017121472876532 10.183283065512084 12.05073677633972
Co 10.239917818061423 9.210875462282724 13.223498364848965
Co 10.748932019000257 11.521548945394084 10.433859547365582
Co 11.245178087804359 9.716803512360363 8.790425703413758
Co 12.174517131830783 8.422310520631122 10.635107895709567
Co 11.465581994895729 11.961142239474343 8.242127571858953
Co 8.298272449082805 10.867004532090668 10.71943803609236
Co 10.024002597877582 9.373406827509676 10.94684817078462
Co 8.11240470837991 8.939687928212896 12.269574383263764
Co 10.15044816204318 7.2467345202622235 11.765259184780572
Co 9.192918608321841 11.81256101025945 8.694720892567572
Co 9.152449745566814 5.783502725097578 10.079715906051883
Co 10.391120892877526 7.499172050413027 9.36917600946118
Co 8.821773338312665 9.442455959185153 8.742377666323408
Co 9.812322915776551 12.717799456348782 6.659308784159733
Co 10.284994197501709 8.10696324791187 7.107413993414189
Co 7.939022119416961 11.321609598235096 6.712626329729343
Co 6.4492883836195345 9.489500084000518 10.635878386044638
Co 6.885168255474722 10.826370095268455 8.784035655486385
Co 8.134032503958597 7.773672124331363 10.362083951876505
Co 10.116409733651498 10.44404123239124 6.90595538312259
Co 8.49956580649428 7.054886520439038 8.070539300067399
Co 8.094982156566621 9.009478386539934 6.544324023891651
Co 6.690942503385637 8.512036471626715 8.45567088775513
Co 6.014466015556799 10.006532442435908 6.8212622806104015
