28
Energy = -158.39191093 eV
Co 6.356680891557344 10.663202557493273 7.6839844835300495
Co 6.422140680388496 10.392789403057241 10.040191300731149
Co 8.439607200921676 10.968654318378631 8.545183610702136
Co 10.806263397186205 11.5193922588425 8.269673749686826
Co 7.100712364537692 8.680335135231271 8.519786586777574
Co 6.021444552410697 11.474803983668739 11.973607569529278
Co 10.049805174923739 10.555083000670962 6.424922831152811
Co 8.108366578709235 9.478033398192698 6.595241066440145
Co 9.287640893789845 12.809565948341117 9.580614796504063
Co 6.845093301059495 7.84157684181049 10.708863452158292
Co 8.555260311796054 9.392339608890484 10.322581503377455
Co 8.129618181793287 11.562920765253308 11.208059483561623
Co 10.067732157174602 9.06132503066899 8.346181846072
Co 7.2275602754310855 9.556737996890131 12.22972600818673
Co 8.851099089952259 7.124817988880675 9.526276895956212
Co 10.353891679050948 8.206122999539998 6.163759917709018
Co 8.402237635718661 7.285931838375538 7.165007987898321
Co 10.33686522815751 10.974172763874256 10.457570768501828
Co 6.84628681138086 6.43171226362134 8.686345403481033
Co 12.042467245026739 9.476580010964526 7.144961224223034
Co 8.973210261222533 7.613982422534603 11.808162418136929
Co 9.56616544464782 9.849600336756694 12.385967718873477
Co 12.203650721447021 10.113367053914784 9.424918450663991
Co 10.800194700943129 8.63515391070325 10.70459917583742
Co 10.527024197679948 6.613748720893639 7.945693845144019
Co 12.388179191634606 7.222841790603127 6.674524975457489
Co 10.860933144326014 6.401879887413006 10.322868584530054
Co 12.17600276414166 7.839461841544766 8.88685842218606
