21
Energy = -116.04531774 eV
Co 11.906368869006739 8.459481420095196 11.18567264781915
Co 11.87371985486262 9.300261275041503 8.952783084342002
Co 10.449555338394662 7.5856164562192765 9.627861266927136
Co 11.822114056552195 10.182580729231452 6.828826831603988
Co 9.638615453540735 8.069705229440801 11.813232267534609
Co 10.218235632249216 9.900153412700014 10.476766853472922
Co 10.721013530601798 8.14216593738207 7.310469852309647
Co 8.159439573120633 7.293688085995754 10.18654284113937
Co 8.901436371735176 6.652764978821327 8.034515496414842
Co 9.576774359931221 10.007460962260287 6.423058879068138
Co 7.378272373222243 7.695974981927939 12.319196891947326
Co 10.375586413918876 11.05845533565278 8.419077036574084
Co 8.591461682368774 7.936583753577389 6.195659594688132
Co 8.848032767533894 9.130886634979287 8.53336101135683
Co 7.965268478024627 9.540162280601116 11.007661066483333
Co 8.15898255511823 11.358735821556913 7.741632531561585
Co 8.585796100603151 11.5837704593957 9.967319678787362
Co 6.857286757131517 7.8154207589709745 8.308743102960303
Co 6.061480490239161 8.300170409157397 10.44330521479214
Co 7.075683080562308 9.541969783828131 6.81143396673365
Co 6.724819381940283 10.11106675059728 9.139577162152612
