26
Energy = -146.2136923 eV
Co 12.371387094958338 10.75249442806378 14.303958633604841
Co 9.44358990806166 13.5425534031877 12.907874662104934
Co 10.252043553112848 12.28347965251924 11.085700275152195
Co 10.039372377137353 11.74478849455442 14.337645727262066
Co 14.321895622923611 9.45282093464236 13.224987946019406
Co 13.200244741409012 11.13622426147668 12.206621077540165
Co 8.886991444082586 14.130792056556517 10.676792453093123
Co 11.058699859176945 14.476486395422443 11.377361677567782
Co 10.149682572622968 11.22425636925967 8.7934614939725
Co 12.310696841504509 7.421895443800607 9.71192256557125
Co 10.812511562836267 10.42016458583203 12.649660815807483
Co 11.734625503878634 10.501733771312685 10.375166780586706
Co 8.237579400683819 11.996960480019803 9.948907231386727
Co 9.227324392874666 10.006774200851018 10.621314183233725
Co 10.77973329917514 13.494509804445627 9.202006123462725
Co 14.060981181542527 10.937753655338534 10.036879638502521
Co 12.244522935915626 8.672799116610053 13.176470238073748
Co 10.882798194247965 8.386989806763204 11.241658698139496
Co 12.556645534946842 12.777806696784396 10.616152026909514
Co 12.42000616806695 11.79981203689258 8.503501852391123
Co 12.853010196474736 9.400016861580335 8.668528998348496
Co 9.043689685985235 9.013421266395385 12.65170745435745
Co 10.609486694196105 8.880854055309742 8.9597439296439
Co 8.586777721981552 11.39077761078212 12.428218734469745
Co 13.369533349830517 8.929940740086598 11.107615594668081
Co 11.650403851808406 12.690992994777286 13.002404227207325
