21
Energy = -114.89753569 eV
Co 12.149733423541466 9.445540603187606 7.245762711795353
Co 10.070657357735495 9.055033945566759 6.445408423934573
Co 10.717847051050029 8.219227670311572 8.642147490355091
Co 10.732191802339177 11.262116696129894 6.892574895974322
Co 9.01342541353934 6.551636517138481 9.047472611970647
Co 10.665064253980406 7.049775899144261 10.61998538755357
Co 9.788767291931123 6.834443758085281 6.90349499756375
Co 9.108913489761594 10.25052913984846 8.149438465956802
Co 11.28240121938813 10.57671077470937 9.034333211138598
Co 8.09828085842528 8.191389844771722 7.739908069200493
Co 11.251637042042427 10.2846827437025 12.854727694308593
Co 8.84807457562182 8.581685583810689 10.165726328908052
Co 6.82219684847075 7.6021400965814445 9.544245745679445
Co 9.792941028098188 12.345615696546721 8.914270731286381
Co 8.40596822794963 11.05161418367073 10.260853854606388
Co 6.831408478071583 9.862794910095412 8.828861558505563
Co 10.501733045486425 11.489111594481958 11.05874104111262
Co 11.135531353353715 9.208330494227042 10.926586700483375
Co 6.883050083731121 9.429794832315487 11.07326513815258
Co 9.158159928364473 9.760562188750479 12.193029268368875
Co 7.4590773660816465 11.202194281928398 12.320053241404741
