22
Energy = -120.12048071 eV
Co 12.793580183739586 11.139184310880347 9.455530914943568
Co 8.126625297368332 8.596433673223355 11.813870688570525
Co 8.859055796749704 8.518565509117373 9.702197001649486
Co 7.20388778106811 10.250020393467938 10.278586648944177
Co 9.432740377504329 7.0341021685126215 12.77190801004486
Co 10.626577865976866 14.282493925500457 10.465305676321346
Co 8.766253418911255 14.323002915040263 11.689332800896768
Co 12.378014168682638 13.487708861497264 9.044996955204097
Co 8.792223651344448 10.823537253506299 8.781840548715989
Co 10.199398236450318 12.56381363189017 11.993298580388954
Co 11.098460145785685 7.538439107636362 9.362402731848169
Co 8.414567622195207 12.49455693414072 10.408720180377335
Co 13.836199634365162 10.836893516075788 11.490892396409668
Co 10.597444067175564 8.440760652988736 11.435149384729506
Co 12.776047498764266 8.90777058459047 10.493872097900033
Co 12.450987839846393 12.815378850186848 11.183342187739687
Co 12.695665172915843 9.060758434484006 8.252654459207864
Co 11.626979115543273 10.6379005730979 11.601943452917558
Co 10.622476096105068 12.158345029848595 9.675034033439248
Co 9.364533873290531 6.5136331211352445 10.608016798788864
Co 9.312554062863834 10.49072563437922 11.159400238284627
Co 10.831947301066489 9.81099234352429 9.248871353224745
