21
Energy = -115.71116312 eV
Co 11.387166235997157 8.980530600471038 11.96524896288054
Co 11.960950051416255 10.228374726986058 10.03474576426173
Co 10.228522429701055 6.997974754174393 11.051163974374408
Co 11.640166684336688 12.412477144489511 9.796209298524667
Co 10.467675720531663 6.673660931060071 8.565684586721419
Co 10.314451091533742 11.152821064760042 11.458970115878913
Co 11.610215556156339 11.097543092515334 7.745264135195897
Co 6.75207242107792 7.738191550818768 8.053618904040428
Co 9.477464709573818 10.439395792067206 6.907615416034261
Co 9.80728441168025 11.280634612238345 9.14337195292812
Co 9.809649934424018 9.1811219627581 10.364593594373154
Co 8.270176024147965 8.311703526613025 11.722187268613354
Co 10.701853073205532 8.981155638567216 8.218635930895314
Co 7.991144352648747 10.616017737317632 10.691117674610384
Co 7.86111185328902 11.890187115817529 8.299812278606346
Co 8.036650108651198 9.606116827009632 8.524739620080343
Co 8.49133243801548 7.3609535227724505 9.492633199313882
Co 11.949002613439028 7.911343382234785 9.887770958326831
Co 6.119225614748474 10.75241572086954 9.273881183014806
Co 6.622680496172508 8.733591310681863 10.194234757465228
Co 8.915203202034217 7.95726318921665 7.173542400021512
