26
Energy = -146.17903881 eV
Co 11.53849678619486 8.12415173965015 8.691966379662015
Co 11.622806883653835 8.730346576529561 10.945778039338485
Co 11.938672903926062 10.420115200089453 9.140674429246902
Co 9.33567085383854 8.680529272088705 11.702758107213208
Co 10.290127373228579 10.635812650941439 10.84312280470277
Co 11.845645081538935 11.954515413357539 7.289128919172404
Co 9.51588242202518 7.128245184515367 7.9633556838703825
Co 10.16686787024598 6.993525713799392 10.228780288715754
Co 8.198127979789033 6.636626733719874 11.458307087803792
Co 11.401875205108562 9.723763659229522 6.952767269751502
Co 10.271644499750872 12.06718763973825 8.957187995837648
Co 9.748835102056105 9.746682008441365 8.669470078402208
Co 8.768308702762258 12.44344957113787 10.660023853685043
Co 8.20055224142711 8.198159446859249 9.672984867640478
Co 11.156916006871961 7.5008309850192285 6.43204169915688
Co 7.831465307355567 5.979147512884942 9.239067826985751
Co 7.939852625129655 10.323226292614812 10.732157839661793
Co 9.590898969692947 11.227818482829619 6.868015388598147
Co 6.655280155864464 8.404186550723548 11.35589532952003
Co 8.019875949336049 11.427799805212011 8.648844371441212
Co 6.103458053448319 5.994814075926047 11.048987776854931
Co 7.3416566062043405 7.95693868458979 7.486085240601203
Co 9.23409520253696 8.91397139713181 6.459980998158585
Co 5.985092268227609 7.411116459237194 9.335322733832294
Co 6.4982258928036805 9.676892725118798 8.9587127901475
Co 7.318611871854696 10.219089033486622 6.777525014872114
