23
Energy = -176.86496795 eV
Co 11.870865874256754 13.923061263954155 8.685986957381765
Co 12.691694577658431 12.069370328138376 10.160001157980574
Co 7.116083617439022 9.946160944933865 11.645242050164226
Co 9.8441571297529 9.183433531607863 8.267503167778152
Co 13.304980886519033 8.946320563728497 10.319971183844038
Co 8.474830618562317 11.118716724263425 7.444333067109968
Co 10.068606027808741 13.660963705992422 10.411811820130971
Co 13.021978265770864 12.354650135758886 7.356366923814421
Co 12.166467282070437 10.279095008759828 8.499030580911613
Co 11.265531976113298 8.227695333884878 11.8723996783243
Co 8.926571314081437 7.78417237584968 12.700089634370308
Co 10.84827167297174 10.144406763569593 10.672410434324966
Co 11.345718103535166 10.121412400988866 13.460109961937505
Co 8.881788681740085 11.446545296551452 10.146749585994282
Co 10.480471411541881 11.914425167651094 8.36848801625717
Co 8.832714948611711 8.71202338082172 10.34778066958724
Co 13.150922430344883 10.534782923375708 12.072691844334502
Co 8.510072380736641 12.481493858834103 12.42255804753376
Co 9.214305477212939 10.17570963362457 12.570868986280228
Co 11.567489021138265 7.74787146898861 9.151294858720853
Co 9.887275003984948 6.6471750490323664 10.230989271152353
Co 10.980517222529546 12.205335386791056 11.959190146662039
Co 7.2472850777164455 9.952310889684382 8.857177967651685
