23
Energy = -125.30647154 eV
Co 9.8329580465177 12.731110444835867 10.754392835952105
Co 9.35125550124608 8.404452810502667 9.891819988043933
Co 11.77652039956057 11.229817788839519 8.619111896637008
Co 9.696827174055024 9.953289754404977 8.148733520952348
Co 9.498844359002275 12.28503010411594 8.369987146648839
Co 12.922771690222238 10.000406031339779 10.394536293914486
Co 11.390537709316622 10.101209256823081 6.627013326548714
Co 11.213428318787205 12.475970649153936 6.784023015058895
Co 9.658344560273461 7.910120117114321 13.91131692658625
Co 7.80403862014592 6.780167598008636 10.501280333631616
Co 7.623258910307319 7.624886763429982 12.625701795274628
Co 9.229491517741675 9.30425260338806 12.079338043569328
Co 11.305377080329217 13.496664931171301 9.082402024262027
Co 8.432179472617166 10.758240553292488 10.03308564636524
Co 9.652345670004571 6.960412877945117 11.835896301345462
Co 11.5997274896297 7.299274648980006 13.076118652529635
Co 10.649535163434516 10.544861338207179 10.595361132584612
Co 7.2618152425227365 9.007792296881819 10.856427526154672
Co 7.833148323424334 12.914559817454771 9.772730337926268
Co 9.409081758101934 11.223476866473145 6.2760334870270365
Co 11.569510960245651 8.858542087360577 8.868576204957437
Co 12.143674774755876 12.248062096697954 10.808090064712395
Co 11.422569639412792 8.486063960275887 11.247992597423636
