28
Energy = -155.1511324 eV
Co 12.190519790991479 14.51927273959749 9.562019149393384
Co 7.898856879910751 9.876430134423774 12.586303297785687
Co 8.669382687357022 7.69855958818355 12.085827134307076
Co 9.26820641964268 8.75043101374887 14.037407820825909
Co 11.7526871720995 9.172907724795126 9.82856099141805
Co 12.334608030703839 16.621936600070555 10.745754087040407
Co 13.581913243326827 10.905928811024562 10.162015308156514
Co 10.74785935480902 10.232028837731246 13.045517393339685
Co 12.617537771335867 7.367005348101546 11.028320332956849
Co 10.826334250146559 12.75689619297992 13.009015437419112
Co 10.418987663630691 13.312093664485388 10.727133506801515
Co 9.701768593932131 9.454653907535471 11.012466417752728
Co 11.51698324081768 14.882326228158405 12.057978518915007
Co 14.984744691181659 13.001686043959955 10.246100580917089
Co 9.060907908299422 11.242219833408637 14.103146149069154
Co 14.575433746080437 11.625040763864368 12.136358016943023
Co 14.146423992514286 15.115353789992803 10.592091525942898
Co 10.309065575738277 15.576788088018564 10.20552945306384
Co 12.885024943378752 13.002239964342962 11.203507857803093
Co 9.182284192954592 11.653253730448867 11.806640085426432
Co 12.659329561102286 11.40883636618454 13.248632955784844
Co 11.370143564033338 11.171645450317383 10.95819440571932
Co 10.959239394263584 7.95854551275332 12.475886055121162
Co 10.399684988064843 7.314569961112444 10.350914120051224
Co 12.908493339312962 9.501837038121886 11.886517944873537
Co 13.525342600567027 15.830081572764772 12.654217860780054
Co 15.129658418540629 13.95414202917146 12.326924083212688
Co 13.121248218461451 13.672323551712362 13.429975550079739
