23
Energy = -175.63201003 eV
Co 12.218147760945108 7.589820125775596 13.550969998721165
Co 9.346953773449702 7.943701955259877 13.394703712111669
Co 10.929482188500396 13.917694621357114 9.115417539964106
Co 7.293198833567165 12.546294956161137 12.906362441751785
Co 9.09967925097696 13.398128224510033 11.101717294924741
Co 11.011704487393702 12.030530660990427 10.582998616685229
Co 8.494694855846413 8.523030830566334 10.96967004663007
Co 9.870660715866011 10.337980997659596 9.245076773722012
Co 8.927946390981317 12.618674658072129 8.87485551349979
Co 10.67910479401937 6.843160675308927 11.842477641807724
Co 10.515838201654978 9.667276850265317 11.694753496644784
Co 12.585302491557417 8.853350257544088 11.457106961167348
Co 9.771460865406643 12.010321584739623 13.1315202553729
Co 11.362514931104265 11.870666509481621 7.807924040196017
Co 8.44425299047031 10.11372651087245 13.305413786422745
Co 10.98057224622265 9.086576331405546 7.286112468437327
Co 12.306454064765594 9.982691736603318 9.483414040772429
Co 8.164708671326323 11.074022526687951 11.058914986940422
Co 12.659170029465178 7.772279820457819 8.715215418274825
Co 13.164275398822287 12.216642961609754 9.384181432547194
Co 10.503644563801387 7.877586948040444 9.730841886003594
Co 11.15069501522366 9.725789159093248 13.855944590971959
Co 13.016458704937993 10.230654737468525 7.158383938130363
