23
Energy = -170.88427129 eV
Co 7.187662271497031 8.395882890584305 8.948736158275583
Co 10.7022215248191 6.044504602691151 8.356933428769906
Co 8.526672585824864 6.608482780610946 9.805257413503245
Co 9.137098263174925 7.132538057554452 7.692336544630783
Co 9.229927846714054 9.661070499151915 8.23669931300699
Co 9.013449125873928 11.907901073801202 7.526567544994712
Co 11.427369030361744 8.331376471841601 7.537207270598488
Co 11.004403120685895 11.715955289772063 11.244185775445958
Co 10.706062460165741 7.844594310833784 9.71041692839119
Co 8.660052803432626 9.014710938650634 10.567611285285544
Co 10.78312934939955 10.76326447609758 13.205146400516911
Co 11.255109927044117 10.342710016839952 9.516449743844673
Co 9.539535972967027 7.32507755468098 12.135206566198443
Co 5.404860937457564 9.782879376045225 9.12165898952169
Co 6.837222288059734 10.42086797795454 10.753171818908102
Co 11.266255898519848 10.684643858408506 7.192489224052016
Co 11.06069514893433 9.197707044479193 11.683489560836811
Co 11.022263619111945 12.769150550619303 6.8850796321227925
Co 8.823292314523263 10.694976440905897 12.219833136478426
Co 10.33189898072385 5.799924585367977 10.866253062071198
Co 7.221460114595782 10.975017865377225 8.201525503612954
Co 11.104147728757308 12.456817483249797 8.961913009871662
Co 9.073612162575438 11.45614022118638 9.903926359648507
