29
Energy = -163.54542451 eV
Co 13.549099567059418 13.087486361646672 11.248835372214089
Co 13.098257576922231 12.202627316089735 9.196484703911215
Co 12.014419610414388 11.91144546852186 12.974370036998067
Co 12.929948427244572 10.893410820096143 11.153725935662107
Co 14.36498196606073 10.341612134472518 9.403443953860187
Co 12.530413137684478 10.105159186642613 7.985737293785524
Co 11.337461067828983 12.625533255466939 10.912383143563533
Co 9.1580686332204 12.431325466231831 10.280226321358949
Co 10.939154719067647 11.58592200346156 8.639349372806114
Co 9.792775848530036 11.373189816626624 12.532119254324886
Co 12.579627272248997 8.943298613400898 9.950927165156681
Co 8.81219653102428 10.650903671065453 8.857390654203332
Co 10.570659947532407 8.880390595352653 8.563707948782662
Co 10.534060655208402 10.32446699536232 10.59642615234151
Co 9.919453802409196 10.274354714353422 6.917898127783011
Co 6.9376460861979545 11.867272601602549 9.17477955647535
Co 11.512477489005914 9.574577248596064 12.505159549093372
Co 7.6427111868315505 10.329333546573105 13.32447925510955
Co 7.841192554580325 10.785737334753982 11.145742225843986
Co 10.78121590230015 7.802013627413784 10.940596591288823
Co 8.15058751966697 8.5737186544779 7.832806160046325
Co 9.237244284501791 9.087641990061634 12.41951260364894
Co 11.813952830917573 6.973148858625254 9.080509982061798
Co 9.461010484588614 6.881789530143935 8.953169115229471
Co 7.443266185940884 10.62492210187772 7.084163331294165
Co 8.710782500139915 8.588724965163843 10.241448350549101
Co 6.861724541733039 8.729278073729972 11.566088338287134
Co 6.680205721992716 9.582020655708165 9.372925390835062
Co 7.064688639624774 7.237979082959195 9.414878803963557
