25
Energy = -139.95449064 eV
Co 8.377760307621276 7.701864712573406 4.8551535403169686
Co 8.004475916980189 9.854767996174814 5.631286128333832
Co 9.880830672229434 8.703652142850435 6.438504860913189
Co 5.906441253870807 9.114783864729608 6.120955103042116
Co 9.327668854828174 6.321644076941864 6.454251052718438
Co 9.245771790432283 10.825658838529279 7.428755652203011
Co 7.410478740323897 5.634023779146187 7.489331022506969
Co 10.617821815539846 7.285435957190861 8.138630324134196
Co 5.58386338269317 6.875717460586969 6.624554367200933
Co 7.656161277311036 7.887347516259989 7.013005720905183
Co 10.494232360419971 11.691736057501004 9.168114139459933
Co 7.015154015573472 10.108644706105995 7.893493937225525
Co 11.166782629190255 9.655622614173398 8.286721971231183
Co 5.745509944750639 8.131755026217146 8.499892949729889
Co 8.95622689867381 8.912385880052799 8.712700674487733
Co 7.560394838105116 6.997501626658603 9.346555662368713
Co 9.32635907730009 5.564544419621125 8.836715371113204
Co 8.367204402407156 10.949551596419955 9.689312157666864
Co 6.135918984827904 9.934066760895602 9.962384159138022
Co 7.9611190134082905 8.917698259066174 10.907434356951436
Co 11.875237812852978 8.06178775567921 9.867201629919414
Co 10.298604316681544 9.74306256961178 10.457079408714764
Co 5.968132686393301 7.75055610010164 10.839391757883568
Co 7.975520968748493 6.610451713814534 11.551939541843636
Co 9.754988824648562 7.378399354908545 10.399295295802974
