27
Energy = -152.79941181 eV
Co 10.307145182727771 9.580500221888594 6.273053605434532
Co 10.504731694647392 7.319100662435299 6.772739373608225
Co 8.247859274268093 8.352186174551687 6.442750253837174
Co 11.80922921086425 8.893800185183757 7.990996765439332
Co 6.268959227994739 9.586319761913959 6.605413855517021
Co 8.265380633531288 10.588501358815702 7.29521356819824
Co 8.778919245934313 6.442575685698324 8.086528293058326
Co 9.458198775910748 8.710737772533568 8.382926330713875
Co 10.91880903099331 7.044123069260822 9.198294520693855
Co 10.42495846028974 10.979421127893902 8.18030474235002
Co 6.658180529342733 7.43394744916684 7.7800254764254895
Co 6.8227438131312494 9.477988391505951 8.852174590126479
Co 12.743357151089569 8.013374791328554 10.196677078251186
Co 6.319661004138028 11.603518847844075 7.9829559498504725
Co 7.712099485881393 7.556755233007516 9.867454686908177
Co 9.265408193823319 5.887631480041852 10.309149383253562
Co 11.215291370452931 9.703880673215613 10.099949510380481
Co 8.4033682886491 12.348343609153375 8.891840536133667
Co 10.48810174961543 11.956744461757587 10.287405575206282
Co 11.368537211690915 6.5752213637267065 11.405276488461803
Co 8.828400017630441 10.351171101145418 9.909691725381323
Co 7.4969355230639 9.310423809352738 11.41494098545551
Co 6.729003305788947 11.30914646653541 10.262921042137904
Co 9.673983296386945 8.112182483208587 11.032520946927626
Co 11.594738307972891 8.751685224398516 12.158474725768283
Co 9.703140191598912 10.255276033822188 12.039661527935468
Co 8.530574516497504 12.169418378102401 11.439160927264899
