26
Energy = -145.52215213 eV
Co 11.560750670531922 13.062953758822283 8.743377686188479
Co 8.960167737943221 7.25904750102782 8.648701402098698
Co 9.488542999435783 9.685829823243743 14.057276387251134
Co 11.877631533473913 11.851022387882766 6.866926300719979
Co 8.97876546716422 9.281901799433708 7.352296936763553
Co 11.091066019476596 8.343691739209802 8.430199372741756
Co 9.487073873249239 11.697485724953992 10.499933804216756
Co 11.575463013535877 9.297258239402185 10.50120603607389
Co 9.345559780201995 12.925076176375228 8.370275155127025
Co 8.074552007237452 11.041106207005328 8.630597988748928
Co 6.921022730590939 10.274001198152076 10.399177222111874
Co 12.717205333570812 10.128904161697157 8.510284936210954
Co 9.577441162129219 11.466461040395746 6.586815959251008
Co 7.775832606495703 7.972402867840836 10.96245229814552
Co 9.246992666606571 9.323058618136228 9.906633152428189
Co 11.240915511888986 9.676702144763182 6.537506447545289
Co 10.130172109338487 7.497925327646753 6.5740506529662905
Co 11.883319465410693 11.594002516920517 10.393629003200594
Co 10.567911753102207 10.844419598537328 8.564217702976451
Co 9.97552096763022 8.425560196734757 12.121650887042014
Co 8.045947634635318 8.057375521995521 13.338577057645129
Co 10.750401636562048 10.668500434308969 12.23366779704912
Co 8.43761636174693 10.170266471073944 12.10019913691145
Co 7.151542750748523 8.69186572705886 8.753174303126002
Co 10.469731151357587 7.087318954765081 10.33301507517039
Co 8.948304417346652 6.347155584342823 12.02362291362104
