29
Energy = -163.49732677 eV
Co 11.019966065592016 10.397676251113515 7.810917666237427
Co 9.01043751312171 12.326605964992703 13.001322415190351
Co 12.61621229701439 7.277475208283886 10.987052939939733
Co 10.289049726062103 12.127279416242223 9.659854376748774
Co 11.074947753241585 8.678192665674922 12.10113507109804
Co 8.15194057147343 7.188024878596467 9.68286881865585
Co 8.621270908137275 10.974598103507152 11.184752202726786
Co 13.34014783959661 9.820835320217176 7.8487951878819455
Co 7.111696742300942 11.87987014410259 9.604788087077793
Co 10.338744063341935 7.322633745522752 10.33560529708251
Co 9.697475171106285 10.068320132154309 13.283307579734313
Co 14.59768726670849 10.554475474797636 9.601857649398667
Co 8.646879829207222 13.168735388894913 8.41816164299789
Co 7.715734998586543 9.36549884958338 9.563515704145471
Co 7.467417304843511 10.478376944414414 13.186143245239276
Co 12.405619442079681 11.348136525842417 9.428425026421266
Co 11.603654341860091 8.503904229223297 6.754213146555331
Co 12.020276935811557 8.269860346659291 8.96065105063205
Co 11.004181631725677 11.191849719401333 11.708451133501036
Co 6.806213287929297 12.316317900865403 11.924041523017824
Co 6.354878988688538 10.122740747670012 11.176021057973239
Co 8.593424642226442 13.28158204252534 10.749932820772091
Co 8.723061177693326 8.597465555526647 11.569300085828747
Co 7.767834709477138 9.100868061480083 7.3468738220663585
Co 10.345898020408992 9.682419233363111 10.076442792352216
Co 9.658843805367693 8.349806252845841 8.205715964290786
Co 14.254938179839547 8.329626522095527 9.519287223489881
Co 12.776828877215818 9.60853005699465 10.833760083205242
Co 8.839505458849047 10.913684474935359 8.225696868035179
