24
Energy = -133.82140145 eV
Co 12.333978396538313 9.818265687593831 7.339921165495796
Co 9.420235784502076 10.604549082113428 9.886762258413352
Co 13.189318040747345 9.94583890349807 9.545493282251583
Co 13.610448837609153 11.606812631093153 7.916520306460658
Co 10.856442903934928 12.845949460423054 10.600724832813052
Co 11.052321028833553 9.128488952337227 9.085640439704735
Co 13.153837482541665 12.207514769785035 10.063095161272757
Co 13.432043342307955 11.327725625299 13.982058484602307
Co 7.6190226032416195 11.942463385696028 10.463757385072606
Co 13.788937571885825 10.553799048145978 11.761646266057353
Co 11.550755672888386 10.643832929039885 11.16094740614909
Co 8.813049984117582 13.751236742033047 11.04518461143298
Co 12.362585752698811 9.379198966407069 13.166625737901294
Co 12.039740275530193 13.133318654931776 14.532680498914548
Co 7.984575558319045 9.775940043234376 11.516212351258309
Co 11.829228987327715 8.352420113004115 11.141240676351936
Co 9.297562264644858 12.698720641067558 8.931135003421497
Co 10.51979876661933 13.477795663214554 12.831952599443747
Co 12.62639280555299 12.61246348398272 12.289027709581054
Co 10.089273553241156 9.32800032130909 12.476789792789887
Co 11.103539611033167 11.265277533338882 13.577164440082578
Co 9.484224013482175 8.279928792335493 10.536483385053318
Co 11.392391097414821 11.482294350714024 8.681620804346071
Co 9.33202812551067 11.61707066402227 12.03369142064501
