28
Energy = -157.73312633 eV
Co 6.742705973953292 10.129097548698283 11.769848889985715
Co 10.237208896043473 11.413861642113655 8.835330395323163
Co 14.11442318137466 11.023555540049385 11.84228754099645
Co 11.54364896433429 11.369166959979166 15.052396474640872
Co 7.668664236397643 12.160625890981423 11.77074927634913
Co 12.251999367436724 11.515588537958985 10.374195966878814
Co 12.065542778408439 9.86326068439073 8.699953550819053
Co 14.3840093933839 12.090373241760327 9.54197848369148
Co 9.016756822173292 11.851299339087499 13.5972099039557
Co 9.398943816016313 13.938497525659747 12.052892089924564
Co 9.945333899112137 9.897535572005854 14.422562268521279
Co 10.81211955316916 13.185716506842978 13.853955451256825
Co 12.865093174868154 13.880603576650971 9.77811131321961
Co 11.147787997206335 11.01743676341833 12.68106321230274
Co 12.877302153516826 9.8614100846141 13.623424999815967
Co 11.709823030911329 13.375870207114648 11.791961945463585
Co 9.785164481330593 11.97438175038837 11.023332289930547
Co 8.90458331708457 9.94581246395364 12.232012620515292
Co 10.477661166349277 9.67026433058978 10.474015699946625
Co 12.569237983230224 9.344102308554382 11.387634379242373
Co 14.111422269051975 9.849618022387697 9.757256043901789
Co 10.818954667777556 8.62414846441834 12.715708409349313
Co 10.617495927349433 13.573603660193571 9.62994389317622
Co 14.101617787433272 13.331029506723588 11.620372731840755
Co 13.01721977369069 12.250496687347855 13.480845229154019
Co 8.315394629699892 10.498751174558581 9.989182928101052
Co 14.045786377623939 10.727226134951515 7.621959984292703
Co 12.42538343811358 12.186663594888723 8.16481111297058
