22
Energy = -120.72071073 eV
Co 12.303811719526578 8.548657595413438 11.547680785606728
Co 10.140224124179367 11.988921421603623 11.551879622977152
Co 8.6051620410113 10.335039091259283 11.79883827876985
Co 10.74255978184714 10.002432744272406 12.700145280270814
Co 8.730666722494213 6.5536164836332516 10.248411712065943
Co 7.6356395627723925 8.413804152256267 10.810708590614974
Co 10.033794399918085 8.386550344655985 11.09964004078361
Co 11.958297235627322 10.710414562036933 10.910183110129536
Co 9.88422310545567 10.489404364328594 9.73910536065333
Co 11.645925115292902 8.802468451915535 9.370664650272715
Co 8.12203548215872 11.937050457162785 10.142947986919543
Co 9.363949607869259 8.231790653952444 8.781696522810352
Co 7.194107301444459 7.596306001602725 8.66588608198721
Co 6.494723613617036 10.451068188052174 11.035490182484585
Co 12.854171288134877 9.530144066841045 7.5162435800461616
Co 13.636060288615091 9.863005527545086 9.618983376546582
Co 7.574426890523067 9.96150184688279 9.045974559540365
Co 10.54634957038022 9.688018440526294 7.396362454547465
Co 11.765807306499068 11.255790656111886 8.627770983180735
Co 9.029410439037187 11.377709803462974 7.812574971897325
Co 8.29309037220722 9.224746050074229 6.951311808568772
Co 6.120091791181099 9.121866912774284 7.447733040666399
