25
Energy = -193.25416862 eV
Co 8.339963092473777 7.863124071715709 11.785817829224051
Co 10.027054016492128 10.535119413840775 11.370557339781813
Co 7.816886232902583 10.027013051086739 10.809641251718645
Co 5.85982846469927 8.530662433114758 10.934441714596549
Co 6.68580028448415 6.2532916926404765 10.909136763159978
Co 9.60597121596811 5.920162611902467 10.930231395063755
Co 9.155098893542611 12.388511461765933 9.771785557259362
Co 10.30230132129816 8.089640412916832 10.110847234896205
Co 12.134318446842666 9.811552765605118 10.314371117775426
Co 11.574238581742229 12.06416974278526 9.718099673879147
Co 8.055260099536138 8.012407066763709 9.12186205320068
Co 5.5687116328611275 9.379007133939782 8.854645501546722
Co 12.260633624223995 11.22170937547852 7.606049215177685
Co 10.038516819887757 10.01754378873508 8.649548635887431
Co 5.853365236880313 6.865087686171765 8.6877810654136
Co 11.910064481194029 8.798036965407878 8.1109921537713
Co 8.259388512584431 5.404107693401192 9.05681507049264
Co 10.00383987276701 12.21614733237105 7.474931407893608
Co 10.315025248944856 6.664693464103574 8.334041540870729
Co 7.704853528145798 10.688050510172664 8.575527299330888
Co 10.988172431120432 10.094425637973561 5.908693458161697
Co 6.689407769080442 8.75376055237751 6.86178021420512
Co 7.546250110781555 6.457579977194022 6.9229440477904065
Co 8.592066582217088 10.503015872155697 6.3423709902390195
Co 9.353480712223522 8.22955021699729 7.041055358039698
