28
Energy = -157.57135087 eV
Co 14.589013485750602 14.155524885836297 9.669897002387138
Co 11.541321327139714 11.139879605141005 8.41550599447552
Co 11.28804170453779 9.092055227145227 11.915525264684938
Co 9.725864122387472 9.42342686173979 9.000915419023716
Co 13.481629008518983 8.635078307615215 11.339763588375279
Co 9.39629778142168 9.541480179291224 13.386572144240557
Co 8.912114429549787 12.9871099128399 10.582433051159974
Co 10.700622137356616 7.579218729550322 10.187899925304515
Co 13.411883012956228 12.334371760467379 9.060512391264401
Co 12.015329163661447 9.293474825266106 9.623645517515667
Co 14.84140877325471 12.201273709270351 10.906442997968352
Co 12.610607027236522 11.2281829720298 11.070116985714156
Co 10.910114349410275 13.060372223614703 11.972442771281127
Co 7.941538243290314 10.723475042755192 10.236838475376631
Co 7.131131552818122 12.675697432354683 9.24026045128016
Co 10.252636398836898 10.97090366506038 10.657671450978123
Co 8.804020405855546 11.623505585572657 12.500473104163731
Co 9.048953496323442 8.86249254459615 11.191322720465454
Co 11.042821384587377 11.13407160917743 13.121236241433776
Co 9.25658733716628 11.72647039666115 8.542990748786726
Co 12.817628365370663 9.743799612673774 13.554804942804356
Co 13.008848565982115 13.604165357530574 11.180679933054842
Co 6.7415318840085074 12.17909506726257 11.503121899631907
Co 14.55252236182296 10.396383906713629 12.26301484441479
Co 13.155558747793554 12.137812066414508 13.132279761509567
Co 14.157746277758447 10.181134947602514 9.658829528565732
Co 7.269374970805013 9.943948662810048 12.3380255344824
Co 11.169264298918064 12.978594770397619 9.695426704493272
