28
Energy = -157.81751053 eV
Co 8.486843280018137 12.736264799940825 11.738294007661024
Co 10.216896554068496 11.30438035895123 12.182118713771603
Co 12.020518276452965 10.005936891489926 12.774139978722129
Co 8.221083039438609 10.436536503630926 11.278786113801422
Co 10.005221203499676 9.000802416469039 11.87955448765066
Co 12.616479751687619 6.5161720609736635 10.01504582685863
Co 7.313541961541149 12.07312778005805 9.847987350599771
Co 7.979514398786487 8.071334694245078 10.772067667149601
Co 10.305533709006836 7.097461693208622 10.470738324172682
Co 9.657619509932571 11.762051797857074 9.939823913877966
Co 6.978937114683287 9.783735748335527 9.333588946279056
Co 11.50963962057462 10.368673376552822 10.47854109521498
Co 8.254830163973867 5.900071199192963 10.488250379702777
Co 12.174996458715317 8.27657111699207 11.339448594505772
Co 8.42125695442217 11.115892319299263 7.984541425046137
Co 6.642393114111323 7.49222636791198 8.925387232595478
Co 9.491408737968706 9.286257200612976 9.432013893705259
Co 6.078713565633788 11.451992240223502 7.91623103277263
Co 10.835313444820995 10.697647764012816 8.105507157662597
Co 5.7245103065831 9.225181182004723 7.436398913611579
Co 8.844611639267296 7.029553205768835 8.628121631380084
Co 11.91893097169004 8.557114480670167 8.979258699648634
Co 11.068633521965484 6.446910368074945 8.334796829274037
Co 7.161286885757988 10.542040004985235 6.0865406416223085
Co 7.980503404391934 8.836060532280555 7.367880229708605
Co 12.170311515544697 9.507782572453351 6.80639404559875
Co 10.29316938500732 8.364467605831743 7.279222231126168
Co 9.60576036887185 10.22080321801413 6.158204483311406
