25
Energy = -140.14320152 eV
Co 10.035933175143274 11.22246016758976 12.068883245611035
Co 7.574931392867818 11.203100597320834 11.132237784363815
Co 9.504425653982505 11.996225833259434 9.941146309471623
Co 11.385899256781498 9.408324570371716 11.63914139938998
Co 11.26892050126797 9.473319403272233 9.343583550609438
Co 7.3730306000710915 12.050131082131939 8.980128563708304
Co 10.32304858556294 7.566357575385587 10.443137761591203
Co 9.211918918112577 9.710709191187673 10.572719645051563
Co 11.707002745725173 11.457303142794721 10.403162645440354
Co 7.334988521322843 8.751435942167603 11.530121189698693
Co 9.415824717432649 8.434093570600815 12.480592386196632
Co 11.195056388030569 11.542973707830056 8.144546271131771
Co 9.240830273609904 6.9865904848820115 6.77181477036033
Co 7.064906263812261 8.124304338818408 7.5013727996649955
Co 8.688609176417577 9.239839478317293 6.264893406342664
Co 11.15596053868399 7.3099761412108535 8.18579262852416
Co 10.86878690121739 9.251970221759372 7.0099786399511
Co 6.8884813549574 10.473982613715657 7.117103100712283
Co 9.138005616619001 6.148569757376845 9.01519344390938
Co 9.10754683974544 8.434604484516644 8.526398619504704
Co 12.822165404904947 10.04212854508651 7.827129914227613
Co 7.29945481549833 7.408081792694869 9.68147642159786
Co 8.513421114242254 6.579056475157106 11.427373511526975
Co 9.042290207728573 10.738039772838224 8.025705888069872
Co 7.1537333149606965 9.761593388412075 9.281538382042621
