29
Energy = -164.78028127 eV
Co 9.749439290431596 11.839398388829514 12.104274658272178
Co 8.306644948515553 9.962083748649874 12.057489401402497
Co 12.031388976363122 11.827512916528862 11.959301013561676
Co 9.55930967547978 7.9519494298426885 11.995389218022332
Co 13.141497755633404 9.848091414425179 11.873627687994873
Co 11.840282884996919 7.9640020882503775 11.959381165773939
Co 10.8554048667022 12.442238482302074 9.94225673713354
Co 8.970856179837485 11.11993714123716 10.031462028231118
Co 12.716488982392724 11.05723995040568 9.799024225076819
Co 8.88852498616586 8.83887168705327 9.967425056150924
Co 12.678292260462209 8.709375117361873 9.810784590485461
Co 10.730814476809156 7.435910399707101 9.85547551114496
Co 9.500990263394 11.945065674259814 7.911556805371605
Co 11.75311819759876 11.800117592802865 7.711765190865433
Co 8.122228722984369 10.033369108301162 8.009467021048092
Co 12.924966129926949 9.86478121002563 7.702227768651634
Co 9.365008905463872 8.02466954627316 7.85684917537613
Co 11.643443868928987 7.991693124494909 7.705927682848079
Co 10.447637314185924 9.755861304981257 13.230653472798153
Co 10.942073339455375 9.92318763446977 11.053432740231559
Co 10.809759506100502 9.918690339016727 8.750299984205366
Co 10.134141023415758 9.980772988869422 6.623834896017268
Co 8.749040995809999 13.41324944173014 10.046143394609569
Co 7.26409837765151 12.066869059766455 8.823625452856582
Co 7.451016879939603 12.08101470510048 11.448850636571954
Co 6.824262143211824 10.070349293277387 10.148196145733866
Co 7.212236577607794 7.921727359847619 11.20346177421285
Co 7.0990798528333805 7.998922728635003 8.82506790444035
Co 8.621415757835356 6.536974990003822 9.929370641564123
