24
Energy = -134.00111492 eV
Co 9.320711416432104 8.743180544185975 12.565481325978402
Co 8.132267993133588 10.489071298131813 11.728603118644937
Co 9.49798343016311 12.304584330128188 10.819503154708917
Co 10.585684153586591 10.309646556257603 11.17577975027144
Co 7.053757829556816 8.379992339129233 11.19822408576065
Co 12.241091088847574 9.52862325844056 9.819331176914122
Co 6.137783599230485 10.443656260005032 10.60942566132086
Co 11.066210075154421 7.928413277284002 11.15069133189444
Co 8.83043931781543 6.85612642178636 11.391658724018114
Co 8.10785899111196 11.059028791286371 9.491861179841768
Co 11.478671516111817 11.955454134175925 9.73410439635451
Co 9.599666282633304 12.478827223040206 8.405416577779551
Co 8.211108009748731 10.783726456275838 7.235796460760496
Co 10.165155159321468 5.942965217103821 9.74591367594769
Co 10.356787212370017 10.266839280915395 8.621738882202612
Co 10.33452338063322 11.144401770982906 6.49905385408925
Co 6.962351561576346 9.07922688325299 8.946495250379082
Co 10.905755111231253 7.8985453591676595 8.88264395500427
Co 8.106865237586469 6.923182154514182 9.16892039748593
Co 9.048517358894317 8.877712704893066 10.16369671659551
Co 8.808808613406905 8.552889423862942 7.623037931640408
Co 9.103147757059155 9.450969578092831 5.544529647389812
Co 10.966816689328681 8.913604055581253 6.813478239666771
Co 9.798711767068127 6.510006233507414 7.485288057353224
