25
Energy = -139.38340201 eV
Co 12.23897398061236 12.040295904616965 11.122095893425946
Co 6.500215774725419 7.93396789622451 8.64119082378109
Co 10.009832375362432 6.2661406722368405 9.861034755861512
Co 7.9244793719145195 9.044013383788757 10.006309169209088
Co 12.400716560018969 9.111862975611048 9.075495240836391
Co 8.78828452924344 7.379074767274127 8.300460250847344
Co 8.927782432456494 10.996934716854039 9.152622374758133
Co 11.134723514792348 7.398524097925714 7.996647845303224
Co 7.589929931920948 8.520772726691902 12.204281919357765
Co 9.40724722413112 9.813993101592933 11.766758955613723
Co 7.594006391942142 11.079223718683824 11.074795403118662
Co 10.23717275818216 11.901025452028215 7.437060756656062
Co 7.234145783639635 5.766515845375334 8.684691124404306
Co 7.855041950003772 6.797910257446393 10.556278319049042
Co 7.982400525575387 9.404419417405943 7.46690216581955
Co 9.573309201585484 8.01171353996009 6.259287019833615
Co 10.42775949397729 9.603296203742923 7.639645254157108
Co 11.329895571846297 11.068528492855016 9.351385587006645
Co 9.255354007740474 10.442540611353378 5.857409578917039
Co 9.973978430238684 11.874086694748344 11.110034721376106
Co 9.687160992681353 7.520223822283249 11.859045257149866
Co 11.694751458696178 9.842017885803036 11.357383338647962
Co 10.328384244281144 8.575730867930856 9.900010474892929
Co 7.887401371827396 11.69595351079319 7.246733019023817
Co 6.5538337435188 10.543773355353572 8.91343962805011
