22
Energy = -120.90559631 eV
Co 12.092023923022918 12.978193243789026 9.540293886211959
Co 11.017435399751243 10.947399932066347 9.51209417898937
Co 10.020173243395554 6.8968256667403995 9.794161716122183
Co 9.503691338116809 10.443578552365695 7.642689935304498
Co 9.658931469058526 8.320221257161334 11.72044057402605
Co 11.58569674773574 9.903053935571727 12.078326363621084
Co 9.544527742851292 10.63445696794465 11.418217652228758
Co 7.968322148639854 7.404272288056289 8.617675536121782
Co 9.959280022590512 12.954388053456363 8.895612957904385
Co 8.208050397349728 8.804054301889087 6.62982464673571
Co 11.587158903016576 8.674318137201748 10.216904848674437
Co 7.822812435741451 7.007714360123493 10.910378521476295
Co 7.241923908594855 9.673559951288901 8.554710731806262
Co 9.330313007185927 9.084005200682725 9.543222984980227
Co 9.229363932008898 12.956897691154728 11.057009542460559
Co 8.440288211366708 11.366635175134986 9.574445690803952
Co 11.73276946755103 9.378143597150414 7.9874077170940545
Co 7.537526343897936 9.320672270264112 11.008476297671104
Co 10.075776404088105 7.93259590386388 7.623915236015332
Co 6.0778515411793945 8.080768225431163 9.73449383572834
Co 12.057515882710977 7.107869630383001 8.659525992429721
Co 11.328675630682323 12.226863584374605 11.464978062682164
