24
Energy = -132.1271431 eV
Co 13.8193886945995 7.1534830107271725 12.35173653990593
Co 10.180196334057682 14.717317995762462 12.71544862368934
Co 9.562396445595061 9.287757527615414 9.065780881876943
Co 8.888764639271567 10.715464166087957 10.975005495241344
Co 13.319316326960188 12.331949020734868 11.501298192309642
Co 9.634620295913534 15.093611975739359 10.530190812886127
Co 11.715911558334147 14.1323608521971 11.100654474397574
Co 12.904035868680195 10.140118636950398 10.859229734645156
Co 11.013026481442722 11.898203129158906 10.965785101299431
Co 11.971900701792295 7.272685004045236 10.970795202216285
Co 12.025942057680744 8.65510285645648 9.104852690379737
Co 10.54464722571301 13.316224484014791 9.137729569115443
Co 10.640611160409716 10.631643724816668 12.928038008149494
Co 12.204329303632386 8.735567131034518 12.736971703310317
Co 14.485921671837197 9.345846805873947 12.316602168144147
Co 12.929745441348473 10.910215075643254 13.241664839526239
Co 7.973941000390617 14.495792231490377 12.098815057237916
Co 14.006485027884631 8.17368596616355 10.307103490434729
Co 9.28273188392647 12.599484198333746 12.604357636632436
Co 11.31516457930542 10.817307336874574 8.963810899389214
Co 11.62135062535989 12.823732195957815 13.064535183594385
Co 8.672557509602276 13.04681401989706 10.46779537783922
Co 10.692829873091512 9.295662767335527 11.008896909530446
Co 9.136497585034919 11.518292822804588 8.761905437974018
