26
Energy = -145.7197885 eV
Co 11.780344714604581 6.6801152970031294 11.552060999595009
Co 11.939661831124415 8.834643818291964 10.799451191376768
Co 9.542822939554542 9.53574003744168 13.937770685218227
Co 10.286341698256606 7.270063256118393 9.884341590480398
Co 12.555239866251576 7.199193829794618 9.301449838819458
Co 10.12454987743122 8.07394834527979 12.197577492540157
Co 8.153444454648742 7.7840430083988155 10.644727500978657
Co 9.88545365529904 9.632746889021586 9.824852474602627
Co 8.341036760679705 9.630582738103307 12.028944043716141
Co 10.6246930194106 10.444036261147598 12.060066298703246
Co 12.850235977436478 9.494911318683284 8.783642046023042
Co 10.970070755355852 8.355290260404654 7.960046204900794
Co 8.613616712263347 8.238995543012678 8.32678076079534
Co 10.721782694181831 12.729716033464667 11.594720735812613
Co 11.042925572507746 10.735349844985969 8.01301420322495
Co 9.050587989024539 11.686215233839857 13.11260304224563
Co 11.805141223808068 11.163430168842684 10.163074107155733
Co 6.4368797835127065 8.01968222953043 9.029156221300559
Co 8.90278861772785 11.625683997202032 10.77142817067647
Co 7.469262442468794 9.877032884328296 9.788989148464452
Co 9.340463784841646 9.777321174448023 6.731067404853892
Co 10.316462769475216 12.669518833889358 9.230646176909916
Co 7.102374695382275 9.78512452356494 7.466661822917894
Co 10.04820587660487 12.331703761573932 6.7637042754889585
Co 8.601917741913784 11.353921519471886 8.377339454449181
Co 8.004286596812468 11.581581242735076 6.166476159328986
