28
Energy = -157.57742227 eV
Co 11.258479849494336 8.448092955159714 10.087546674316005
Co 12.866431070344193 12.324985620046476 8.956698404399521
Co 11.55828845967359 14.284748835272959 12.071238367531857
Co 13.41212241374451 8.915579019337926 11.02611485487152
Co 10.505009912414742 11.797004573705308 15.044476276469382
Co 9.582439255389502 10.037327869191394 9.726323747233298
Co 12.97514560727071 12.635202163804804 11.361682119520571
Co 13.077604559392373 9.540419329412064 8.735941851638158
Co 10.25682805241469 13.705158915253357 13.830438038812481
Co 9.118036425116474 13.326242217518335 11.79253867604764
Co 9.411559900389424 8.714120905559797 11.660986901689045
Co 10.881350250433869 12.993173628036903 10.275923462984334
Co 9.731661587701485 10.07577726136925 13.637668664020023
Co 14.288907451145109 10.90009711302555 10.250339177709016
Co 8.496983955515141 12.136925751476628 13.74392893479427
Co 12.492849155584976 11.009736337142927 7.018348049833231
Co 13.406850320130498 10.773018128096423 12.535421609078654
Co 11.813953723614267 10.7397287724076 10.348473982256873
Co 12.50360584005135 12.651626400976562 13.805819554579774
Co 10.888988911918322 11.792223560193946 12.423503889660205
Co 12.106987607405413 10.33419851823412 14.352059227273958
Co 14.612832816057688 11.076320288320394 7.982398724392998
Co 10.6763687641478 11.64216298467163 8.372258150761711
Co 11.518378414669575 9.326984863476607 12.30579234351329
Co 8.773226309221828 10.96997547233803 11.654839250853046
Co 8.867643367664087 13.3027653599926 15.608508917303292
Co 8.761374218265663 12.278053201956288 9.704665139122694
Co 10.945971136312508 9.38647255503877 7.928155355865469
