26
Energy = -143.83270055 eV
Co 6.413414898209946 10.286329130713964 12.949283476307034
Co 11.06044520839173 10.005327446493547 12.61332249385123
Co 9.710040062149835 8.527590415643948 11.362720216649949
Co 7.549442545790288 9.524291975061717 11.179548200734871
Co 12.968848465021575 13.851933889705649 14.34685512397233
Co 9.746093836533568 13.16463174637514 11.114966559302466
Co 12.299579655206392 8.585973154154216 11.320312266842025
Co 11.005995420189093 9.629195936786152 9.809045246597918
Co 14.932407019017086 11.929803756944947 13.180799453377098
Co 13.315131647888542 10.174078390520208 9.85460141382483
Co 8.740006116269534 9.928703055811287 13.091664743743346
Co 9.839012495245909 12.04458880326178 13.131050463113844
Co 12.991068572049523 15.364053528536552 12.426514655595831
Co 14.03527065770404 14.844874627542028 10.480420447272184
Co 12.155762766442693 11.805135772787583 13.691544849616475
Co 11.871322258974107 13.975253150355046 10.485927046627793
Co 9.431524959889902 10.849431959204033 11.02803596143496
Co 15.248055533870682 11.008329020209107 11.017552301670369
Co 11.197107076428816 13.914761160182104 12.794351762753244
Co 7.708556926012961 11.901926396881944 12.166898792324858
Co 13.757777034619718 12.461526822744995 9.907872287881258
Co 15.553121058708028 13.290220143707563 11.306515423115782
Co 13.366370364463531 10.478052072478818 12.183924932069223
Co 11.695768937942212 11.653052947393276 10.843418432875694
Co 14.941664561808404 14.35737630828862 13.258688787464187
Co 13.332512374962304 13.094712646752587 12.103035439016919
