28
Energy = -157.91581311 eV
Co 11.208545566575717 9.567127888790008 7.3563073665832155
Co 12.692213511812108 8.533413539026967 9.285040280133646
Co 10.735231657841611 7.6056463205637845 8.479181575259542
Co 8.888112762414078 10.628067624317309 7.105022066359763
Co 8.82429657891557 8.363509842972546 7.536150236175993
Co 10.63622997616418 11.897940754071838 7.911388029854593
Co 12.233394124845928 10.833435799697694 9.123388889146671
Co 10.824946114913176 7.438822954201103 10.780601023784063
Co 13.893778813136906 10.015991220884983 10.730249216058198
Co 13.097754748931905 7.978706381992639 11.589084187590622
Co 9.97770647944757 9.812346696417874 9.291740514245388
Co 11.593689991770798 9.648062280988118 11.063199188986834
Co 6.745732400490942 9.363657263034806 6.836638004589898
Co 10.48049970583318 11.888873840215542 10.44307798669265
Co 8.624841982643826 12.09820611724796 9.04277931079041
Co 7.623428603820707 9.889821470858932 8.979594888283199
Co 11.211862265503068 8.430170956422948 13.036900999946525
Co 12.877705983204908 10.036972539630998 12.921733049278714
Co 8.660493759790654 7.7869616542334255 9.874146779393552
Co 12.560388941902243 11.818367424889557 11.457701611745419
Co 9.297375712658463 8.939576469112053 11.78553436937372
Co 8.448343127481193 10.942044400694213 11.11650239533498
Co 6.684497523215989 11.588304776117266 7.717447903718234
Co 6.663359368082326 7.829861681955939 8.634419316836205
Co 10.385533984902857 10.931247711713961 12.565699725799318
Co 5.36767090300779 9.847717466026285 8.688641490463358
Co 6.3732259672770395 11.439020726992537 10.125740345298603
Co 7.026690915685381 9.044440855609096 11.012839137783189
