24
Energy = -133.72131166 eV
Co 6.517769224071359 11.867637582661914 8.304174526276304
Co 12.790737866624632 11.002794579361824 8.672767976359895
Co 12.529280019462595 7.260574086688461 11.83304494970026
Co 13.279939309983565 13.04844977849858 9.581299542089365
Co 11.597366974379192 12.825040826224463 11.247076695266982
Co 11.060628625606368 12.684805920566829 9.012355731243195
Co 9.784682760523477 12.597575676438042 12.960475773100251
Co 10.287366457482346 10.780837381969443 7.848097748079383
Co 11.067314689758582 10.584441445289777 10.144685702871163
Co 9.358177821828383 10.389840465757207 13.717113574870414
Co 13.223251304690672 11.209053492677965 10.997966345633037
Co 8.015232540101884 10.302592019694247 7.560129253720578
Co 7.647593978589794 10.79678318388922 9.943482478363585
Co 11.260871533834235 10.86502780145754 12.519500987673936
Co 11.559763852492825 8.97758208333585 8.350000575989508
Co 13.041525479543237 9.370130613239061 12.56731296766844
Co 12.885950611406514 8.975761463506517 10.31100941900553
Co 7.831519759512082 11.423489388213094 12.285706376413069
Co 10.786212696312345 8.116438095499689 10.571399242489978
Co 9.377029443889823 12.15919265318327 10.740903388714994
Co 10.847930045983123 8.602487565508488 12.810825479678396
Co 9.243005418930947 9.774951646514497 11.49471761897259
Co 9.220232296007115 9.20242744783124 9.185596369804308
Co 8.717947514421054 12.371953863159913 8.497852421927487
