21
Energy = -115.7994855 eV
Co 9.935265961562328 8.915441053226978 12.335789535620783
Co 10.373932278630146 12.496447785538807 10.390259095694345
Co 9.660277299020777 6.85911533040855 8.993476811230039
Co 7.449563396356312 7.554422070591539 10.10444054335228
Co 9.765573469850334 9.561084508646545 6.60567403248805
Co 7.805759640472656 9.488643920324861 11.628967939750286
Co 9.37107068735301 6.984180979978817 11.292438715156147
Co 6.6524095252696265 11.848123586340321 9.023945317969371
Co 9.80329983417459 7.276943094988538 6.691182069193812
Co 9.307143144571738 9.011674455596655 9.87644535901502
Co 8.468246000325289 11.291331874266547 10.255893740228082
Co 8.117722210270603 8.27551248851983 7.90529668817832
Co 11.86833862563929 10.385666928655496 7.021815424034197
Co 10.473403876920528 10.97663060790695 8.675250327567309
Co 8.265405633915378 10.632353607835823 7.94782625434224
Co 6.804479728137213 9.644555893102396 9.45902940060413
Co 11.065718954798452 8.544756477028514 8.231079431802259
Co 9.326020457710129 11.210219338712868 12.346042114530738
Co 10.984247027148884 10.378934534997414 10.961585922217717
Co 11.387894563729846 8.096150137642056 10.495503010569168
Co 12.52775794143145 9.918178267318963 9.328234126246272
