21
Energy = -116.14413036 eV
Co 8.823981456005317 10.537193815746125 13.040921956761004
Co 8.760151749468344 8.699622972534696 11.633623434774858
Co 10.805130403737504 9.626605081293476 12.207420187478021
Co 9.699510298163656 7.607014176825835 9.672269084039662
Co 8.471704894304493 11.255970690025215 8.609331209011863
Co 8.696456905951909 13.043188405913488 10.067606973426495
Co 7.931884111534487 10.962249192476321 10.894822347296397
Co 10.622522862112536 7.320554432613283 11.771371558087193
Co 9.998091821773347 10.00172731486924 9.920107565855396
Co 7.670785625464082 7.384670108128396 8.021232422079606
Co 9.993667807337948 11.81105633844119 11.523650021182593
Co 6.945969110037766 9.758181984207816 7.60386192431988
Co 9.115964367048285 9.105598705325335 7.6500931902588185
Co 11.857581193499463 8.610944763430235 10.322099490939765
Co 12.726301800087512 10.396296556099914 8.6406174251929
Co 12.068219271908685 10.951890256117673 10.692032941861772
Co 11.343494103526423 8.626486932371865 8.0839173726753
Co 10.662438650128113 12.179589913356311 9.257792079490976
Co 9.85661405615355 6.86207293382923 7.550351948376424
Co 10.752964362310554 10.782328661939154 7.505684380419212
Co 7.689402666626826 9.03049209081602 9.596772611887122
