29
Energy = -164.77355264 eV
Co 9.858729032590428 5.96904237501946 9.10243756954133
Co 11.233737256191212 7.177248259582726 7.4647864848129295
Co 9.518114503968546 6.868809231408061 11.219201440041163
Co 10.90806442768666 8.109220871556973 9.739400005957357
Co 12.186280959614303 9.225238808756803 8.081363683510693
Co 10.220655465748303 8.165377938722033 5.611469618980888
Co 10.39384911443389 9.036371782565856 11.92739182163079
Co 11.805675427268145 10.294729253234737 10.223818826951293
Co 7.551691565554648 5.8050600328602515 8.75738317085173
Co 8.878269269938478 6.957674521155662 7.165887568896108
Co 8.099067605250807 8.969337394884285 6.14857846382429
Co 8.503509514771517 7.9022030884041845 9.349003200871863
Co 9.842186195144281 9.094312900217092 7.767591591640328
Co 7.175400349861162 6.663413039015841 10.835744036268828
Co 11.144751767623152 10.174845154437858 6.144176148503212
Co 9.448692119426886 10.058791409956424 10.019232198532254
Co 6.338283680345165 8.688419948975982 9.880476713254604
Co 11.248397507366331 11.238546265407189 12.38316188169311
Co 8.99391442712941 11.047535286919393 6.741521670673608
Co 7.637925033367618 9.969905343278691 8.367833954269116
Co 6.722103514781254 7.7560671105121495 7.776386840313095
Co 10.838739269034386 11.239814795881156 8.321914297114686
Co 8.072503441089854 8.808078102568503 11.595636381645324
Co 8.728499157084945 12.039438153472682 8.930280811225847
Co 8.97146904344791 10.914919036710208 12.322200501771245
Co 7.2959938870684224 10.809639224569617 10.62538682282078
Co 10.538168934483751 12.273029782036982 10.432703719627746
Co 8.427066576876387 12.845149481864995 11.195508096216662
Co 10.039939032312073 13.106141976173292 12.746067533260073
