23
Energy = -127.72981102 eV
Co 10.218281115784507 10.741508632309122 13.762880214325863
Co 8.039688286625468 10.455405364171268 12.707168701986886
Co 11.080440762700508 12.546759088162075 7.755444534847605
Co 8.290141640636747 11.919879682427553 10.827320151120404
Co 8.859923088933094 12.540114325472864 8.641024037361452
Co 10.625187685154302 11.907738507152825 9.901260328684227
Co 8.206512417916278 8.921063706495236 10.938449200926488
Co 9.911297331199785 9.436654356236117 9.21386190636383
Co 9.492033847669578 10.845176025095423 7.294836677775094
Co 9.501184457342184 8.614603861496128 13.031392289609682
Co 9.980332519555558 10.321333265808887 11.507346077084346
Co 11.754179967302152 9.245406286261613 12.613344949931747
Co 9.984274895295918 12.55020563350021 12.271449806661543
Co 11.705683800064595 10.400023260117086 8.045248704505958
Co 6.490991846217254 10.446368799191017 10.944381945277751
Co 11.898850789996203 8.018685778761638 8.90434984560201
Co 12.13274823545735 9.829591504249562 10.382078181563596
Co 7.896040573977809 10.432332570716166 9.09495227554579
Co 12.816884912405303 7.712259382017111 10.96217302664443
Co 12.894850093756265 11.815553366888423 9.458353882887907
Co 10.550128897459727 7.999975100507426 10.972923136940821
Co 12.026187874496264 11.615214013750286 11.839791774109186
Co 13.63476815872833 9.492587133610776 8.72391155258402
