21
Energy = -115.95964642 eV
Co 10.965950471866662 7.616998329455398 7.504411596528177
Co 10.296816402074729 10.859839089392162 9.74145847581729
Co 11.157629059262838 9.880686099615207 7.630539999372878
Co 11.56917314975017 8.73848062073662 9.682224475575318
Co 10.258540026169802 9.352989076385436 11.547049013405363
Co 11.262850891449062 7.275900827637413 11.450960791095385
Co 9.267263476419776 11.495034453696702 11.706795837305322
Co 9.086338108176324 10.964606726351905 7.673240664847692
Co 10.325161522902704 6.601489904694442 9.527745249427243
Co 9.133338485377328 8.83216272376418 6.566016503558033
Co 9.349539156004857 8.759034480037846 8.931221198136726
Co 8.874256072399588 7.5465047986858975 11.0567005400485
Co 8.099600827681085 9.780974584642538 10.744153909678953
Co 8.675988572529103 6.790836680887303 7.801749595183489
Co 8.214927114119169 11.882458739363425 9.602903504521025
Co 7.120122143946902 10.001192436289264 8.627134039638104
Co 8.200701506981257 5.671567637252539 9.766833645217988
Co 7.211034828097807 7.728816833009165 9.421635276826597
Co 7.376820614729589 10.337431652750855 6.25819613168544
Co 6.937299612410809 8.223881994738539 7.1431915356438775
Co 6.8569761799263445 12.05965922511934 7.741567802447539
