24
Energy = -182.11121996 eV
Co 11.672120468693773 8.313917884580313 13.043332436412788
Co 12.117106059420284 9.360301047222578 11.00054290908208
Co 12.367573742953297 7.395735842295243 9.910039409604469
Co 8.601246322039474 11.931227575625037 6.462478378511913
Co 8.04990308032105 11.305269796243527 12.73263769780064
Co 8.858648049389679 9.809946250896527 5.590750470080283
Co 8.129920518433744 7.488087668813984 10.123840686224892
Co 11.925521782945854 8.912905038070967 8.483040460423915
Co 10.711910337023758 8.363366617291604 6.4203742599614655
Co 8.638893267387873 8.558000745174152 7.9637626521950144
Co 11.31516478404115 11.39344562370374 11.723042156169122
Co 7.824127549638509 11.038994637757845 8.585594222320646
Co 10.252993036072047 10.544925599406527 7.75462124619539
Co 6.856117476121392 9.920168069651352 6.678139741057571
Co 10.284019937752813 7.194993156630523 8.69548329952271
Co 9.732976312558826 12.955882210879185 8.727572997676143
Co 9.875261527814054 9.445929202621366 10.04251346696221
Co 9.81858657688936 9.760443969374455 12.469874436926533
Co 10.36612625180727 7.34158175622402 11.210080556953745
Co 9.317977536577347 11.749541604974425 10.648019283188457
Co 6.223578186865044 9.009082907700003 9.19374928682535
Co 11.601944986803682 11.467043674379426 9.710155289177308
Co 8.377858575027908 8.039610623185899 12.19033974151938
Co 7.615018878224831 9.734763040204829 10.891778165780686
