22
Energy = -121.77018503 eV
Co 9.726524450351057 6.898025349535571 7.505866964087573
Co 9.571496949755192 5.630459404970839 9.444709739717752
Co 11.17488389483699 7.555038195219558 9.180114160225111
Co 10.753145100254958 8.828481304914297 6.945905946620359
Co 8.26113901626833 7.914619569646337 6.123264496708943
Co 7.559317611650516 6.317496514956295 8.034182557229736
Co 10.153564744926241 7.015542680840543 11.212989997816658
Co 7.485877476266291 6.020222690545974 10.35055478396311
Co 10.738009096863601 9.761861823282677 9.058215183877477
Co 9.223498537278306 9.987740169062274 5.620816745817298
Co 8.768032984884506 7.84781903342848 9.50382241363224
Co 10.17435472926072 11.235971265710957 7.335739309260601
Co 8.621614327374827 9.56364338467673 7.8907267340914835
Co 8.018880842319197 7.817146571885163 11.72916253523743
Co 9.887612286432503 9.329051666119526 11.098177915825849
Co 6.360618336419989 8.010743112866189 9.869571047467323
Co 6.575875911549209 8.313298899274459 7.643841027507753
Co 7.010824656021095 10.12589425106225 6.261117483070049
Co 7.918059429930128 11.790042368581835 7.602473945231967
Co 9.07849377825703 11.295082833026092 9.56294892635587
Co 7.6978728696491245 9.783285921523655 10.50506087797262
Co 6.455903383481587 10.353064404516248 8.715199241346172
