22
Energy = -122.393853 eV
Co 9.999036122937 12.269841974030557 10.380047882603945
Co 11.31774702730688 10.332570604063001 7.210041657919928
Co 11.974717078185051 11.421432724421278 9.267439102341626
Co 10.15858064479335 12.338282255608071 7.958322104637251
Co 8.790967533034175 10.358908150881579 7.081034483558924
Co 7.980532188574282 11.557419862668358 9.023139273915628
Co 6.513293407422992 10.364848684150804 7.640422125391832
Co 7.848698920149198 8.192816200972825 6.873186714982702
Co 6.4212842913481065 10.308489506159889 10.303095637770312
Co 7.793835416224484 9.092526733128384 8.960287201021933
Co 8.570723039631988 10.407140959893365 11.107352382989061
Co 9.988040671405745 8.312715907865792 7.71334185201524
Co 9.971197840175227 10.388808170373716 9.064181500015765
Co 10.969659818438618 10.185154514839134 11.192460113156125
Co 11.824006675849729 8.926104782038408 9.141789956416567
Co 9.736666506642223 8.394157976182523 10.193679392026443
Co 10.927943388127607 6.6796548493977745 9.249773170785444
Co 11.52297690126767 7.699235200859621 11.357470022154045
Co 9.593683900639357 8.649360988253045 12.466220571414896
Co 8.576845715073821 6.851632259326399 8.896086278383754
Co 7.6314422981326855 8.251806169869843 11.176602338145361
Co 9.311986092258476 6.454635040340025 11.225956133328706
