21
Energy = -115.04102857 eV
Co 9.064347355787053 12.407977396544219 9.809682307106872
Co 9.762119093898695 8.984666325471654 7.062247179529118
Co 8.559445705868262 10.070203278713782 10.266914954477338
Co 9.086364824777283 11.602159795964873 11.900737685915999
Co 7.838487883800261 8.997888876328817 5.825594010887205
Co 10.89019074979129 10.660163877032927 10.662177270430831
Co 8.611009909183693 7.014101900304556 6.766361631047188
Co 12.480866278451927 7.726824374010974 9.972731120980349
Co 11.554781317898653 9.373867730288232 8.677831801701394
Co 9.907910681968644 10.889856587222877 8.403430382608652
Co 13.100184526898945 9.945816078676051 10.241493535668877
Co 7.758505246979146 10.056251634119217 7.9070145854885165
Co 10.633672510021627 7.2470051316654285 8.288010417235544
Co 9.562977306602113 9.395044152642395 12.320772832846965
Co 11.86869079428879 8.933152276602742 11.883071990005972
Co 8.041572859411223 8.003307680210815 11.17335195203263
Co 6.649454792596477 8.042312285403323 7.525112077398171
Co 10.296322075045197 8.28170548650549 10.378518243372996
Co 7.025523870814368 11.546396875176665 9.41161209564473
Co 8.472536371320523 7.898397962327044 8.85800802289536
Co 6.541418969678051 9.06242773271899 9.712129020624603
