25
Energy = -140.15853167 eV
Co 7.617480138995211 7.053900786529891 7.765261222298187
Co 10.471972041454634 10.972644547057646 6.792680467015983
Co 9.038526906922302 8.750936690397435 6.918876982722358
Co 7.303415990129456 9.193537969890254 8.513422069690975
Co 9.15533531860613 12.449478607166515 8.063450125768135
Co 8.027071807526779 10.789483662869197 6.975317984104654
Co 11.21773028939098 8.825020851316706 7.579132325390248
Co 12.621242050888423 10.664017295702862 7.539406717849161
Co 9.649687420296567 10.162529448340665 8.802935222828587
Co 7.123937331254473 7.490867191407609 10.023016668829278
Co 11.175557033365504 11.887892985713508 8.975019007565264
Co 9.532539659417816 7.679080289029574 9.08380622292681
Co 11.979626453223515 9.790891845804623 9.573295611384042
Co 8.50620977674594 5.694354048284027 9.553520944102758
Co 9.344371818240273 12.76169541535306 10.374925396818236
Co 8.455669977734257 9.33497534522657 10.758364815731209
Co 10.354510333024576 10.817423509102388 11.05947244056295
Co 11.980851132929358 7.4882700801242965 9.313239790252162
Co 7.694125729364062 11.326754203767397 9.540300667351099
Co 6.265385454632293 9.810422250579656 10.499063608256728
Co 10.801941634924265 8.47395466319931 11.074619065449223
Co 10.554216179671059 6.114027386344877 10.530801092417667
Co 8.882160761749715 7.20452987987695 11.560258724855956
Co 8.176704156881538 11.31092120018841 11.84337550827371
Co 9.541234182705079 9.423893426799916 12.75794089762854
