29
Energy = -162.60711222 eV
Co 10.783372865871488 10.180534110742942 9.25738682139236
Co 10.135751964789256 6.522941168602275 9.815972240397238
Co 10.325098325694444 12.924416030874117 11.979961579514368
Co 11.079594976967632 6.361256733323613 7.820786003503524
Co 11.224695969552727 10.07929797488168 11.918567926708382
Co 11.294058151958536 12.341714531812569 7.178977781178472
Co 10.318617473695843 11.419162392746168 13.584833642979428
Co 7.545858862128138 8.41520006394873 7.359909419325461
Co 7.240800000026944 11.644476023439994 10.034654714988552
Co 10.00729315196889 10.429536797812482 7.055993282986302
Co 9.794017695987804 8.619329855009928 10.665616757806681
Co 9.432969444748776 11.3161755516194 10.740141923875587
Co 6.266575139640663 9.455095842904194 9.40869604710555
Co 13.640559579836507 11.860780903549061 9.50158215140944
Co 11.776343223851804 7.8678324001724524 11.520117292626896
Co 7.707887979530971 9.578623843945342 11.174911178805807
Co 8.369112585054726 9.996380089856249 8.820579807989962
Co 9.29889733093194 9.418831061094421 12.893769507040075
Co 12.886662679916785 9.879559471415137 10.345441566575523
Co 9.846115324193375 8.284335121521393 7.9724789108151075
Co 8.137503319205674 11.439102186181955 12.605005895196253
Co 12.381226641135976 12.003818095524 11.506709133426892
Co 12.523182152765232 10.63232719512513 7.9563333402066565
Co 9.287142545906542 12.096731076926199 8.515206619147754
Co 11.328182433262374 12.427076151790935 9.53052619902871
Co 11.844486970817407 8.087429207915205 9.279403091618102
Co 5.953694510407169 10.873198210151479 11.720799591599468
Co 8.677175564534814 6.364739856365024 7.7402262909415835
Co 7.930961596841495 7.713288861725105 9.494256664887772
