20
Energy = -109.81559717 eV
Co 8.596404153733944 12.026727194985034 11.181501572163251
Co 8.971503188954477 8.780616364873081 9.308549528019622
Co 7.764704036179542 11.262786938630423 7.3526305639018075
Co 8.430511884246817 9.599027541426176 11.518758980635544
Co 9.794342329652926 5.851368452859127 10.461980987664425
Co 6.641179273208729 8.542984133262888 9.893570944768644
Co 8.181258546585257 7.303817098633196 11.07742463830881
Co 7.613179978757461 10.690272869526584 9.601324238254747
Co 8.573995946657183 9.726206930671582 5.8550976439724
Co 9.845670648913462 10.288401014326121 7.731228398801288
Co 10.131331659603855 10.658754218644708 10.347327984055427
Co 12.025733037657567 9.758553636400372 11.14651249815608
Co 7.196515213994327 9.007390389448389 7.6834184073754646
Co 10.57350354536966 7.107084989465504 8.727505133340467
Co 11.51158787094264 9.182681945908293 9.028525348225841
Co 11.283508270809223 8.688951173356203 6.8350513898619045
Co 9.189634477616618 12.29289947566143 8.899245923337483
Co 9.169740138613781 7.9223189336437905 7.0678695880014395
Co 8.179816815300402 6.683525488244691 8.847865037761506
Co 10.441657846826336 8.091717373541751 10.95496181467239
