21
Energy = -116.14092023 eV
Co 10.431284329559755 7.794366309452041 6.9484555931352805
Co 9.107801889509803 9.692234391650514 6.136469724110963
Co 8.257347385078278 7.4650956001803825 5.522672192255009
Co 6.691343177043034 9.083558562481628 6.250695273002586
Co 11.455712927754599 9.805869868332595 6.645176704514477
Co 8.798312338827975 5.980751590287721 7.42033766095519
Co 11.8519221150784 8.471222657666434 8.666038216858835
Co 7.6836769028433896 10.474659352398142 8.024075235984284
Co 6.5865859709094625 6.755126447528935 7.0630577228663
Co 8.258028570326102 8.187188630606187 7.655834381983549
Co 10.031244500803032 9.895086599820406 8.364995221604856
Co 6.21781548634186 8.700081720058762 8.694596507595408
Co 8.306629744918295 8.975337496978915 9.835007148282353
Co 8.934681188555922 11.127533431756088 10.188003878575488
Co 7.475286150875965 6.764708101147688 9.380137959375823
Co 9.905542915333283 7.202656462672063 9.229926302790522
Co 10.503468426524972 9.055554573178036 10.541740017572845
Co 6.666825472216782 10.547481915788586 10.166154903849847
Co 8.868259250408146 7.350628195270287 11.342149755844195
Co 6.6511858980658385 8.328062004378832 11.201325142602665
Co 8.583468094742956 9.609218824083275 11.989573191957824
