25
Energy = -194.14975939 eV
Co 9.158700031078087 12.653571009003624 7.821592523124374
Co 10.246390958560086 10.893213961195364 6.214902874151902
Co 10.042062106438497 12.833537533244119 10.350053112681035
Co 11.682816162573504 12.61856118766353 7.941167261858244
Co 7.721493965321703 11.507359835723458 10.142314528529779
Co 7.776238145296574 10.389917646490899 7.696198718393239
Co 6.142121657034298 9.494131313845878 9.813582377998939
Co 7.8162408533394006 7.454962396389346 7.979373246267816
Co 7.8380436715298725 6.967867756414861 10.846692057897473
Co 7.8107540924271035 9.644853823672898 12.082507263133307
Co 8.374048387820253 8.945109544834885 9.704338997969623
Co 9.693174204566775 8.755242912738126 7.32371887613234
Co 10.0343784553543 10.395738534728746 11.171043306346462
Co 9.193385285538977 11.824865775747076 12.69154969941074
Co 10.015470656024284 10.802809701087906 8.771413208654087
Co 12.123687241583474 11.487573105559347 10.106300967865142
Co 12.111724744572323 10.183648252139239 7.5327719329061535
Co 11.71683183312322 11.8413973534454 12.527361054661208
Co 11.060929815878131 8.95779991208128 9.686546641326768
Co 11.737741614693578 7.59036089886682 7.877605749822739
Co 12.146689684290621 9.409107293970422 12.104876230657755
Co 11.761113514519344 7.072034026390298 10.931064123540043
Co 10.303894457026834 9.638133111921864 13.611797742776902
Co 9.72693253810136 7.985345799445893 11.867107468932367
Co 9.837278027893069 6.730184321583208 9.317306111476949
