29
Energy = -162.93966174 eV
Co 13.46887524644824 8.69095409053076 11.014625666022287
Co 14.387019182001303 7.77471658573964 9.14449861789898
Co 12.51100149368705 9.78833446946891 12.818350870348489
Co 12.972956464226865 11.191029952077617 10.911988974085096
Co 11.547628048889335 7.62487844459041 11.76674916188842
Co 10.508435351403975 13.707349101557256 12.345520151107907
Co 13.137375077450194 9.651971230848282 8.928822140424904
Co 10.861358302197106 11.35351482555358 12.495898785192011
Co 11.072720113774395 12.40404871649392 10.489841540814934
Co 10.01857971211732 9.124031465003418 12.704663427309534
Co 11.325820638087308 9.690384169091082 10.71911137108918
Co 9.5494984952012 13.969333818033999 10.147481830935849
Co 12.926078760426265 7.545666069297913 7.487719474139489
Co 10.615778768874593 13.124450406847819 8.20189737427808
Co 9.153532907159795 10.426524542848833 10.918472877873201
Co 11.285147231383512 11.011843431694839 8.674037524189961
Co 7.471789933678033 10.355655966793021 12.39399549463966
Co 8.727036667881553 12.51191484927225 11.795293921955615
Co 7.922552097192539 8.136788778664402 12.39863033956896
Co 6.553981913393005 12.458298439162066 12.177089771559064
Co 9.474169787806051 7.960482437175514 10.694856492684494
Co 11.620945914833412 7.799020301434476 9.355000253070957
Co 8.960610398087804 11.894393947843884 9.124468515443453
Co 11.310918737835797 9.174130375015613 7.3813609724954645
Co 7.410429043773548 9.112983845212863 10.28146303808846
Co 7.044466595344091 11.372218575312985 10.2505986911166
Co 9.645360331727137 11.009876785318548 7.07435996396969
Co 9.482453831397441 9.357271762817522 8.826166949540534
Co 7.530340009475607 10.324832131953091 8.185884077624136
