25
Energy = -139.42222479 eV
Co 11.75106878190859 9.742793684261294 7.283409108104604
Co 12.87751701733323 11.668825256648313 7.864113445455531
Co 9.44162920337861 9.915625520567362 6.92917166536948
Co 10.54264396097673 11.433133447268316 8.367810938188294
Co 8.06119808716594 8.492311423923121 8.179135440982222
Co 6.558683346607627 9.394170314944999 9.855653524071942
Co 10.277485421395042 9.114995478388852 8.941752546581384
Co 8.335347734851537 10.661126698189019 8.91983559769489
Co 14.160407843580462 11.763149112813888 9.77769504892119
Co 11.922222305776176 12.663348254573604 9.769751121999652
Co 12.37892002147815 10.140448063021942 9.624100568509075
Co 8.551442367915183 8.475546181687635 10.438018577009453
Co 9.270942844935425 12.589816931258719 10.023555434380361
Co 14.11269236386203 9.799045993835135 11.053273753361191
Co 10.786459474056864 13.146977987538914 11.748400151228886
Co 10.824408840086477 8.251014787608918 11.014498966970448
Co 7.988435520305255 10.720362539183828 11.18215254112169
Co 7.167441800277492 8.79606265353594 12.216590329069442
Co 10.471116116567352 10.828599867617395 10.915670102336545
Co 9.044995219125484 7.312785134518802 12.336704219397042
Co 9.473171808263448 9.506527011872247 12.602913351608544
Co 12.152524987093873 9.450583664275944 12.322852180271548
Co 12.712589258437172 11.564722478099908 11.630008017966743
Co 8.965597610639918 12.172532754311739 12.5842427089238
Co 10.98085966587089 11.20529636194303 13.228492262365174
