22
Energy = -121.99811244 eV
Co 10.989004377793274 7.391808847649827 10.578786198954036
Co 12.082953208370553 7.971247166559752 8.578543736379881
Co 10.018451290146237 6.1893799017074205 8.244984905029034
Co 8.863039794598308 6.59433593242022 10.303663287438699
Co 10.937896611426847 9.697937211856782 10.394120125565216
Co 10.835008370635125 8.009232547529086 6.669160586901341
Co 8.795784590032241 8.831732628004376 10.947787587852122
Co 9.845547169875127 8.358447105181712 8.772858724992314
Co 7.513136071705356 6.383844268526876 8.51894599636702
Co 11.23395927393294 10.13285061585133 8.09665317764669
Co 8.5665131204485 7.493204658931404 6.822529190846051
Co 6.764931981169387 7.7812160615288954 10.441404753610167
Co 5.903364583668175 7.619320411433071 7.501549076379202
Co 7.604824868643497 8.802810548555518 8.570074373867534
Co 9.25201217770571 11.076672324578677 11.323424860968506
Co 10.867506661570978 11.899594270465435 9.657519964486953
Co 7.123728393344525 10.277789510380217 10.355314952146996
Co 9.045493931340728 10.768914922349099 9.054892613524137
Co 9.17488810425937 9.811106030139362 6.89998928561421
Co 6.979660375662436 9.244649598932256 6.3116549623436695
Co 5.4316014890588775 9.403368166213308 8.922734442016072
Co 6.924855400787507 10.896066316291991 7.919099586809163
