29
Energy = -165.24728359 eV
Co 13.33398422449557 9.69744976268358 11.554187214848913
Co 11.91965602237676 9.632088697364697 13.403766781693497
Co 12.161320635860966 8.738495121774006 9.629698479428255
Co 12.029030363250447 7.788855635532529 11.85374233003699
Co 10.586666973042533 8.188418067057833 7.928876951914584
Co 11.994920641848228 11.67160999965007 12.08066755014979
Co 11.017055117712232 7.552468795378817 13.956019760054108
Co 12.273613536670371 10.08815160700636 7.649820912933761
Co 12.560132035596359 11.052070343984933 9.879198685049296
Co 10.855598221712867 6.872801083445771 10.000005952795206
Co 10.562488314600387 11.50836322589334 13.896337604053254
Co 10.620150617634676 9.669760612032464 11.39301142055944
Co 9.73391254349903 7.525648734372552 11.99033408293905
Co 10.417233164242912 10.196439546976004 8.967354401361264
Co 9.61570210670009 9.368452991631207 13.541986561410894
Co 10.305416794398372 11.943319201783432 10.437821146034231
Co 11.428007374653026 12.336214013269721 8.255107577961477
Co 12.06863309745028 13.38326674123475 10.400375058359364
Co 9.136057021788693 8.396356211456894 9.80892632549335
Co 10.262734318760149 13.288762793952738 12.259826534854364
Co 10.20481153307079 10.935945141568142 6.762801834123968
Co 8.928799512480202 11.320523540694563 12.26391374324496
Co 8.013096392186453 9.09494645232805 11.869315027365907
Co 8.490271778583315 9.661117326180516 7.874260939104594
Co 8.252400274886519 10.563741318444029 10.13354064670368
Co 10.012464627356323 13.956653261969608 9.298559757703416
Co 9.930843363782111 13.368522869332397 6.926049786813981
Co 8.272412248534929 12.947873232615821 10.62621779924658
Co 8.879605964517326 12.047062219779352 8.408359014018762
