22
Energy = -121.15617557 eV
Co 8.731944750854522 9.268956995632415 12.07992691554143
Co 11.473986064534298 10.4393409322761 10.465836009881308
Co 8.493145244361946 9.167685144838899 7.9487491611300305
Co 9.90764729446186 7.167257170147956 8.671641602181511
Co 8.596504273605124 11.072459351679862 13.417414111794342
Co 9.59347150984255 6.955634468912686 10.962800972486269
Co 9.409568626270094 11.385462929682728 11.190858568230363
Co 11.786868509731168 7.963649790476821 9.729045572433536
Co 11.891051933028896 7.475770242880096 7.387091349727419
Co 11.023808375094768 8.554908289081942 11.885364324726433
Co 7.613797079449228 10.201008186373084 9.945573353380334
Co 9.898903577579945 8.126303937586236 6.422408328811275
Co 7.886688678028095 12.535658156462336 9.793789584768792
Co 9.737464836209215 9.082092048814028 10.008573877462602
Co 7.793069550235004 7.847079510442477 9.789690683362403
Co 7.135199046929256 11.43022568513936 11.76863742942088
Co 11.172965547185033 9.546352293792763 8.10764190825909
Co 11.619138440742333 9.393868137044466 5.898538679830056
Co 7.555384466102052 11.282818723605192 7.814675963801927
Co 10.821570464281352 10.607469716035519 12.78920386443805
Co 9.664409365097029 10.593076446374283 6.592166547746872
Co 9.61463701392916 11.246312776216822 8.832264241445602
