22
Energy = -121.67261671 eV
Co 11.962367335644267 11.20021990999447 9.690650984400936
Co 11.058192358873658 10.608248086586874 7.382597360208496
Co 10.713512904384244 13.095089831483326 9.461345972855622
Co 10.263605245301942 11.396101969851866 11.392767507103585
Co 11.628044169227627 9.01526537012393 9.076096192166077
Co 9.489060694371616 12.643094398725884 7.574535427835702
Co 11.645590781294736 9.552285472677767 11.444918177776813
Co 8.690223571587396 12.881905856348483 10.40806842682944
Co 8.66157811885406 10.646700622289616 6.935573987724558
Co 9.656209214036544 10.959234639500517 9.129165422872633
Co 7.5417889086695515 11.795019930044367 8.740823750712504
Co 9.624837749144945 8.756719912207677 7.918628177256023
Co 9.633576470176836 8.927304707557187 10.404491044326043
Co 11.358332047580541 7.331330716387334 10.882623994052263
Co 8.076469202414968 10.705952660054486 11.00172477263316
Co 9.206085009983825 7.167663472296627 11.830212988679051
Co 7.676901126639529 9.441516959805073 9.024175996084535
Co 9.48081156550939 9.486027164238736 12.627568210167563
Co 8.510762346312696 7.0762129743269995 9.577567907948385
Co 10.659661739463662 6.870078377610679 8.740779886836744
Co 7.394083495305276 8.4998397507828 11.156107556242588
Co 9.974381085829968 5.4836993183346365 10.49353174714546
