22
Energy = -121.86750838 eV
Co 11.848315679762248 11.253020884975403 8.059514660677634
Co 9.5726067822609 11.235590456435277 8.601467452529398
Co 6.714544930055995 7.826615787674456 10.203563366105115
Co 11.789759941602737 8.931297121650227 7.658913430436056
Co 9.504714126067512 10.295657852505139 10.930881094808965
Co 9.541486244403268 9.192490948744528 12.895913242074958
Co 10.906462140668618 6.98699213090111 8.749638741636607
Co 8.162460426646122 9.782608042552388 7.064222088348155
Co 8.774145421293369 6.836135206832544 9.763853960044944
Co 5.995238808030581 9.275539636851784 7.884037500554397
Co 7.5456752124065405 9.77956293773355 9.446602855895883
Co 7.120428703833613 11.561666761507444 8.067077997555343
Co 7.667465396128546 7.681238084948515 7.903049586309832
Co 8.282873209497248 7.501236680440158 11.945733085822107
Co 7.483758016270429 9.588159322391634 11.740777274894619
Co 10.320038743529535 10.268447257614673 6.584063121100981
Co 11.499740409635912 9.824574335908105 9.769801270879917
Co 9.154511696632133 5.847789615724306 7.7019213221311995
Co 10.328601121399302 8.082370620802646 10.97733792140353
Co 9.648856211858252 8.89321564537826 8.78468076972313
Co 9.774067957341748 7.855424798187935 6.773256110379866
Co 7.98406097310683 11.869598796526013 10.200511331560207
