21
Energy = -115.47229672 eV
Co 11.565674259934122 12.04313325509451 7.4283460882402474
Co 12.16265817818069 8.272427448018774 9.94063639916102
Co 12.34764740960717 10.54533466770332 8.97093075758215
Co 11.697057190211703 8.000241772075798 12.180556705584458
Co 9.141220344223537 11.27453921180443 10.845235075345746
Co 6.056360320584253 10.054328543357826 10.678992599170526
Co 7.680965361842451 10.276752497627843 12.320426919660568
Co 8.081283869662732 9.022443913861318 10.354537368447023
Co 9.64457446075192 11.512746047469115 8.485327697909998
Co 6.523986749229459 8.808196040577174 8.644015083325739
Co 8.312505513122463 7.21567974946162 8.838432264021948
Co 8.691782723094208 9.320517478570812 7.94151002745146
Co 10.512811137268823 7.7871239967529915 8.2028043102108
Co 7.451815025924383 11.006086847438825 9.118961604335537
Co 10.357821377622157 9.655568111302296 9.639666522552266
Co 10.913096903191978 9.892427903199748 7.203641909709485
Co 9.812942639569929 9.275749240533946 12.03134844356993
Co 11.859165659243544 10.134499810373724 11.370467381708846
Co 9.988175962355493 7.4972511980911065 10.552572206802646
Co 6.99464248412802 12.108739135619407 11.092875593394371
Co 12.738606788395177 8.612303843779262 7.736969784614868
