20
Energy = -152.15128668 eV
Co 6.7090719315479745 7.517054712792139 4.974158762875248
Co 4.580252783297078 9.290777366387767 6.275219936980816
Co 10.000563302780652 10.04776955596002 7.501551855583371
Co 7.238110253398421 10.160327886584318 6.168818092481455
Co 8.945612519169588 8.169298263915074 6.155747074667277
Co 6.4303970745182975 8.058701065757083 7.318304315423361
Co 10.357143205248583 4.859120588143515 7.219852762221063
Co 8.028543600401242 5.974809794194333 6.924995510390244
Co 5.304776074770556 11.22451004908759 7.316811631176853
Co 10.789856422873722 7.182851844077948 7.289862196582797
Co 8.520383366549952 8.16390142360094 8.587506367837747
Co 8.859968677567434 5.883281311185969 9.233861516554034
Co 5.385956080085172 9.415559217872719 9.028853137647468
Co 10.723539048141268 8.26235981527573 9.452926023481323
Co 7.660804959127487 10.376747174788617 8.453728613689236
Co 6.507466233689831 6.682705612728316 9.48266771796899
Co 9.254611672584145 10.111047326892038 10.33287979202302
Co 11.229178771733546 5.632408944679337 9.534406837325939
Co 9.201666256901145 7.275804964739666 11.11010279079038
Co 7.274384132672489 8.713249448394855 10.640031431356917
