22
Energy = -121.95409577 eV
Co 10.786850095463228 9.555414321110717 11.521778258564883
Co 11.705873050921632 7.671655267193269 10.282962920513484
Co 9.950260323774497 5.838617193281757 10.040767564865558
Co 12.307681258899747 8.391423730995605 7.912214229677402
Co 10.243736379021444 7.572751936794024 8.543959120225187
Co 11.244156157880202 9.760219556883255 9.289822792156315
Co 10.406595385020474 9.353429462829398 6.9782698758051565
Co 9.438602683208009 7.809083297090081 10.916252090484859
Co 8.419534016214293 9.924390648254695 11.553053387354575
Co 9.755428747499636 11.370567768678942 10.349350392000758
Co 8.060402973021104 6.812500322040819 9.107084434425067
Co 10.0985961136082 11.392202374475076 7.960243291049481
Co 7.065166174546805 8.123756022084105 10.690287421695093
Co 6.670815486175715 10.330128677735852 10.06859785585883
Co 6.757803424564153 8.73368380196231 8.35176757728752
Co 8.836595379162729 9.456968418036345 9.24001337514839
Co 8.476393394336013 7.8307816105675485 6.90794749616237
Co 8.12993642151055 10.222905805874502 7.111665874011149
Co 7.993498854405472 11.761251232862062 8.876414971872006
Co 8.998295798929659 9.239454997769464 5.250314734828573
Co 6.628436543923793 6.666012352479955 7.4069214797640175
Co 7.7089984397143 12.105608380734404 11.17098082423099
