23
Energy = -127.53502567 eV
Co 9.702522152979453 8.687085919432214 11.141137663827521
Co 11.11571139997947 7.062536538929207 9.42469855211726
Co 11.343799897865837 10.50759620281763 11.277586317150071
Co 6.837395784829105 10.56158903423984 10.732404162327557
Co 10.515111984958532 11.674258870583202 9.449211511653044
Co 6.859735518546159 8.940761441791306 8.388830804269704
Co 10.610036969719816 8.087589196855772 7.230821275157833
Co 7.859521956775454 9.434486041416138 12.497549461694154
Co 7.0422712079754195 6.66194420499312 8.590606181142507
Co 8.964817514195229 11.926230084909886 7.728183050097812
Co 9.134460363978793 11.013045701399546 11.523180001789752
Co 8.146152123615568 12.452637438523478 9.874464977101574
Co 6.8025870403253 11.240140399095717 8.383343966524153
Co 11.901610309869614 8.208170918892067 11.206953480481799
Co 10.839699036387179 10.611292079038064 7.284749766575658
Co 8.997559301433952 7.831802549745373 8.949039689865126
Co 8.771241814726164 9.64803194576533 7.111679920880333
Co 11.010883409998012 9.391468806218068 9.225791654623745
Co 7.403286347325462 8.292368584918526 10.562139479438619
Co 8.182308071846153 7.4349121797522395 6.755067430416912
Co 11.717195493820133 6.078727095655889 7.45932821222463
Co 9.541708862029976 5.931933994210784 7.786588053482982
Co 8.684012752073437 10.209440884792658 9.400210058926811
