22
Energy = -121.04703628 eV
Co 7.989100560226636 8.187868233506505 9.206131633645157
Co 7.042755824684603 6.3529079345721176 10.534489578413679
Co 11.536666075841637 9.951373760727636 7.979501795948332
Co 8.092331048318664 8.097244564102896 11.618014201085685
Co 5.7010196914383755 8.02895685553247 9.732354776635615
Co 9.345233710411694 9.737604149810942 10.588916719392273
Co 6.905322632749671 9.785750771380032 10.578004395341596
Co 8.19408571926076 10.60491731221407 8.72196925525665
Co 11.76083385710531 12.312569388582299 7.599256979140817
Co 11.626538153619332 9.706457471532113 10.331295678005556
Co 9.360815998848194 8.99710278209644 7.31571228931193
Co 12.758810444876497 11.458450335011287 9.330763361093057
Co 10.514557911304356 8.086203806789909 9.137873776140038
Co 10.403737251087065 11.524943330339223 9.396362406000183
Co 6.225048726014403 9.557095359202897 8.11062426108356
Co 7.32860053606136 8.080053883527933 6.75787964178701
Co 9.76693142648612 11.275816049305952 7.14376356458658
Co 9.09146442339921 6.627860130974329 7.804234696229426
Co 10.455191300394608 7.886538738649662 11.462136953204787
Co 7.678732948899775 10.389460747510158 6.444434014460577
Co 6.842485314012749 6.389772984201052 8.240615227607506
Co 9.29580909816636 6.365799782567939 10.087297594508698
