21
Energy = -115.42618909 eV
Co 6.479356833561343 10.658750270732238 8.200817282503488
Co 8.350115072910494 11.54829107913442 11.635459787894176
Co 10.196101102679341 10.439857478788053 12.604119176660733
Co 8.660575698836746 10.336324770498601 7.172132663311272
Co 11.716415101613688 7.688463154603488 9.485154225648332
Co 8.349623708544067 11.201908911880961 9.285230108655272
Co 10.648134939396984 9.510895500135744 6.585047397961927
Co 7.260813351936324 7.768255400415213 10.785417264456955
Co 8.830637950015198 9.384030546896065 11.004855260395901
Co 10.75971125551109 8.19206835305621 11.53857284751055
Co 10.181659306193895 9.275843524784827 8.912955194303072
Co 12.153349591947993 9.784771585894548 10.471729667374895
Co 12.378766359184969 11.860305232924873 9.440305492833467
Co 12.108933974872972 11.600013944409477 11.924461385106495
Co 10.383585447138996 11.367293748768104 10.434415353743645
Co 9.402155164324382 7.294709125269383 9.8856605568831
Co 10.56557970549517 11.428726491642458 8.028313343121539
Co 7.778960076250086 8.869795989634195 8.858688105693977
Co 6.669529208274631 10.09377610169593 10.508681092676301
Co 12.29642480015276 9.8717390980375 8.15128110591429
Co 12.232061467517935 9.436296727020798 12.777433130100478
