24
Energy = -133.28000561 eV
Co 7.813343240648067 10.961439234761402 9.855144370752765
Co 9.00054828644376 11.700026696496067 11.792684576279395
Co 9.153082307244837 9.335936112535444 12.255766148700545
Co 10.175667432999116 7.923771880179749 9.839494249281918
Co 10.046267091589458 10.25240766113569 10.239331326964491
Co 11.813940510345594 11.463073993621002 8.73312440180832
Co 11.792737948401724 7.417175249723657 8.193574615853203
Co 8.284254074482801 13.120093440306992 9.659110519681072
Co 12.223520759655308 11.082817987148774 11.085619499297833
Co 11.021297665840617 9.52059250900129 7.524434903322818
Co 13.49599438423287 12.415279883638787 12.41605691073424
Co 11.425836062343876 8.829586961097533 11.732514341470077
Co 10.814689067401561 10.755746400381872 13.01947911083864
Co 12.129183714719385 9.265952414669103 9.521296846197588
Co 10.39260017875839 12.691159750457043 10.184686093747922
Co 7.101339737175808 10.228777532648598 11.87581613551602
Co 12.572970181116041 13.244720071398689 10.297385385613644
Co 8.019301745260762 8.654052917152402 10.338976297652504
Co 9.696895048488953 7.453422228339131 7.5543241234906535
Co 8.878367457435015 9.408512915339307 8.326934656379118
Co 11.261161102770998 12.923916337387132 12.353895680483854
Co 12.273382044221828 12.02580100458159 14.273542235014304
Co 13.023541301207446 10.191733722451199 13.027146609046317
Co 9.588092210909313 11.61751351286243 8.251468554923628
