20
Energy = -109.73862574 eV
Co 11.1219817361087 11.864692955423383 10.299434896343449
Co 10.353777035140618 10.441930330651129 11.986709255254048
Co 8.844700038542358 11.852223776984555 11.021841885397242
Co 8.045195725404568 9.961545327740428 12.170718898068706
Co 11.693072317146052 11.057704174998323 8.212342987612212
Co 11.019837230671202 9.523000380464198 9.91710681581653
Co 9.541494478531975 8.359668030641414 11.406060867173672
Co 7.4033808447394405 10.331189258612733 9.9803830484086
Co 9.417832532707813 11.047315690583128 8.91852749386446
Co 9.92336755736451 11.333867835000868 6.696643821908775
Co 7.257928716943413 8.103091183879794 10.78202100106918
Co 9.058622834854216 6.4582063076323095 10.222005151335654
Co 10.666171452501633 7.325077737587171 8.811159954001358
Co 8.110321922438057 9.789039970330826 7.306622057222911
Co 10.456491322539147 9.255336117205035 7.413398348366163
Co 8.794207175515188 8.616954906985814 9.19136687787299
Co 12.48567065201159 8.811929530056993 8.300699002721432
Co 6.48832534012275 8.754616775292545 8.569377960377443
Co 8.896657654752454 7.497663081315842 7.173788653438997
Co 7.439355755823226 6.661394380188507 8.672346403842901
