27
Energy = -149.82953839 eV
Co 14.231198506165414 14.043779096813859 10.119444516315822
Co 14.578012174352859 10.196334858218961 10.550650037104765
Co 9.509223960947443 12.757761147500998 12.929331914813154
Co 15.011491853087053 12.364080049728749 11.630580147170676
Co 13.307197327232128 10.552760873288502 8.57465807876753
Co 10.6349920806428 8.404081763405957 11.602410009364615
Co 11.205883832568476 11.614554475979498 9.150272997815126
Co 11.793034936882544 12.258483660178195 13.926116476737464
Co 9.863638024853312 11.26764464084722 14.721920885508347
Co 13.290667852673266 10.972339537959414 12.445862018641328
Co 10.908603036009357 10.237451288847343 12.89617608136587
Co 11.267752968726247 12.1436544664427 11.530996690110264
Co 9.256497358794764 8.810922088333003 13.482713246087318
Co 9.880565668504298 10.358275347386503 10.580345278360067
Co 8.363025608189437 8.704938512810893 11.399809324588826
Co 10.652319129113435 14.374508931306869 11.698996490514626
Co 8.55488909299086 10.747438090475379 12.433888154343101
Co 13.232237613075513 12.01963297116034 10.240513135972519
Co 9.300819782129668 12.722058105262256 10.426025357116822
Co 14.103287671674936 12.561462185736056 13.908174093323984
Co 12.986228150674476 13.578908316031034 12.155422050398943
Co 10.216459551669828 13.633316155069867 15.042698433372605
Co 15.27908762111876 12.00992289541427 9.058558833399216
Co 11.68933640569197 13.765429945510714 9.79908842928385
Co 12.21039281899413 9.87206796863441 10.599020021742984
Co 10.675087895631943 12.23508232088018 16.626779266050338
Co 13.346389785162913 13.022822835654067 8.14681483093485
