25
Energy = -140.37860235 eV
Co 9.357323963640834 7.862376383278789 7.233322873168839
Co 7.937150260388337 9.719628068141265 7.425538630640982
Co 10.309365016535024 9.948824809023261 7.933294676934015
Co 7.875854856493461 6.658109326327293 8.595914741016426
Co 11.185673746749256 12.036886962653666 8.793368916307331
Co 6.496564269018793 8.484727419731644 8.800756247761658
Co 11.665868559014637 8.008797083291268 7.78702430725425
Co 12.571248264549483 10.096438901147563 8.545385863628427
Co 8.858168378431488 11.837236876530083 8.159750153259827
Co 8.797151041080252 8.679556576519529 9.356126794699643
Co 9.75933542782357 13.849992787432845 8.933918429009296
Co 10.234767494590821 6.712904583988721 9.194741755735661
Co 12.016716411664461 10.920813174862372 10.664033426736001
Co 8.229271332379776 12.658735610350908 10.240852043699322
Co 9.697351229623699 10.80820913779722 10.113376033297202
Co 12.47507503628584 6.945014086437364 9.638817316973052
Co 8.573764965074021 6.868131485110161 10.831279408591877
Co 7.331695962808984 10.582838158548867 9.568359407293874
Co 11.232434089260513 8.868957441791691 9.979146070866022
Co 10.462564552560023 12.82916735966255 10.908648235536473
Co 7.155474843289028 8.77018610762236 11.056026640317738
Co 10.866991481676301 7.105343005822481 11.4246894351865
Co 8.084372117608385 10.888661460901343 11.809181871765785
Co 10.399156757259355 10.96215786445122 12.412097722305955
Co 9.473873589132953 8.943518975515127 11.641562644953591
