21
Energy = -116.72454249 eV
Co 11.122647477497217 10.62869643708515 7.630124654679528
Co 7.152259580896766 8.783820160465032 9.480475039759323
Co 7.406057053337229 11.145139106975401 8.73485367527043
Co 8.747363378251897 7.437008657967714 8.172381843938542
Co 10.576208293924973 6.627138316189428 7.129575119404812
Co 10.148333114354726 9.618536659353452 12.128207481871282
Co 9.52247016175942 8.251256537564068 10.403979508493258
Co 7.766462064571905 8.761578101323204 11.781477162027297
Co 10.467612247682911 11.869322211872387 11.40576532284522
Co 11.167094741782746 8.308844247599577 8.515434708130481
Co 11.167920504077449 10.2371280892591 10.063643655253806
Co 7.551134103051113 9.338455639901026 7.122291347687339
Co 8.591668774389316 10.69366369941663 10.766695448390355
Co 8.938370604425582 11.303058052979342 6.863508641468586
Co 6.306249420947738 10.369219376446976 10.788879802305706
Co 7.857964819874736 6.736628575529959 10.220424573272707
Co 11.750792126281171 8.143816298503944 10.769833371878073
Co 9.849386625054954 8.881073705366648 6.569697373547287
Co 10.35738825648927 6.313635183994576 9.478410055898227
Co 9.237919253674313 9.778352370753076 8.59328335905457
Co 9.701510079667381 11.971220519523106 9.069105667655368
