23
Energy = -128.13560525 eV
Co 10.508696553832257 10.821173708568638 13.047550317217679
Co 13.412431205594586 11.157232898039085 11.521947414102765
Co 8.240079189843492 10.566212677436386 12.49716636827795
Co 9.69627333012252 11.861379234718381 8.930282479368438
Co 9.027059403448801 10.049706183399554 10.372906936825846
Co 11.005285121830733 13.688284281591256 8.620568544426657
Co 8.962044435688945 8.081901507913882 9.188999987316015
Co 12.133539572192547 9.330076823481773 12.149062898559844
Co 7.782211361179946 8.356240949527429 11.212371381766431
Co 9.212960383478153 12.698125726238123 12.76244944322508
Co 9.453522962293158 6.807771406804381 11.048754077560064
Co 14.190606940333986 11.515719680997599 9.354857477639928
Co 11.783038977404003 12.64586761523962 12.455885347425543
Co 9.751887996687744 8.725856416982149 12.327144845003614
Co 10.233204471892861 13.24747544778585 10.754639337619485
Co 12.810970714590923 9.71553628006338 9.72510246790481
Co 12.579363424202624 12.996047019181754 10.225282168536122
Co 12.067905886254643 11.597836634272426 8.460576226301079
Co 10.91212365911926 8.430453092439233 10.348585587556917
Co 11.192025283400397 11.065850104026524 10.710082384250782
Co 8.16641338379993 12.198578831055912 10.785134537389029
Co 10.56255363768406 9.753992048050154 8.51121416391538
Co 12.688345618819787 10.916502060621301 13.740123309047325
