27
Energy = -151.74308487 eV
Co 13.53386754288401 14.145482094644041 11.003803523346331
Co 13.824489785960592 10.505110909654091 9.187963339176903
Co 13.824529382084133 11.841778733287068 11.270747811672512
Co 12.4115498382012 12.998348611161465 12.708864557185233
Co 13.07370249645487 12.71080922064732 9.24888223596213
Co 11.855274614271174 11.057765770513345 7.977774359595847
Co 13.68457538200082 9.417878631528069 11.22893266642249
Co 12.201858511548693 8.738827477113933 9.48785420040986
Co 11.38342973843734 13.45403387663084 10.64945600158926
Co 10.219685001465525 9.748326228458327 8.862822555137097
Co 10.891711077963436 13.062685454807873 8.305536910187605
Co 12.296626186064382 10.676039345795862 12.826382443720366
Co 11.823937030023025 10.889791309230597 10.44887117786752
Co 9.663026382452356 12.010054337365254 9.924635224366016
Co 9.238629584562728 11.442039039366186 7.7558840738845864
Co 10.367081400857307 11.92220418448423 12.194084492116232
Co 11.507395562893997 8.750445652588473 11.733115528518017
Co 10.130304308425934 9.9038802359241 13.383640136667497
Co 9.516453554366851 9.87917943784262 11.09730827052119
Co 10.046128270556311 7.778744341596394 10.161609924676048
Co 7.5948982188057625 11.162507331535995 9.579921565780342
Co 8.09501609566074 11.600345692799007 11.807748339194255
Co 8.08932025665125 8.94990410432554 9.269359850129081
Co 9.478238212512457 7.821031993498415 12.492600353837474
Co 7.77061462999449 9.41798615891158 12.516778406612966
Co 7.704107412967618 7.570224364701674 11.025296254331565
Co 6.401919294337156 9.571185550341827 10.743980200458974
