20
Energy = -109.66060025 eV
Co 9.879248506660558 9.570083709365777 6.277410591653456
Co 7.838740200082682 9.40116600737329 7.282914802019318
Co 9.600362834517323 7.979298585124812 8.038588024317367
Co 8.949127188456282 11.55050273015234 7.0214456461066215
Co 9.479917057167045 12.410272181000082 9.128727474581007
Co 10.224838584072398 10.247603232195338 8.476330186145907
Co 7.619974465156211 10.980694592092478 8.938461384726184
Co 11.742006408489544 8.675100365964834 7.541010877387745
Co 7.889426340955055 8.700954402558922 9.527877760899772
Co 12.0554797479118 9.323282497885645 9.734757118084788
Co 11.371179990621378 7.110558888699412 9.207918371321758
Co 10.14850685120374 11.758304008011748 12.257683854082755
Co 11.37755156461193 11.569266129452622 10.236582662283768
Co 9.160126616741449 10.631993837108428 10.590500018174177
Co 10.081891506237792 8.405684502549562 10.631391799125954
Co 7.11304500308897 9.901537511811977 11.301923651341346
Co 8.00148699556538 7.78679177257593 11.637858260565388
Co 8.96222024194943 6.588191185227141 9.753486506705002
Co 11.419325388139677 9.958606041099307 11.882904109676076
Co 9.148634957235242 9.513198268614694 12.595317349665953
