34
Energy = -191.9855647 eV
Co 10.375131094793558 14.175335049299527 10.897918915453435
Co 9.269991382457102 10.603621624581725 9.013394453945605
Co 12.252734385080737 11.833044915529628 12.695870214430556
Co 14.854575015928173 13.552893924655042 10.267245938322878
Co 13.176737150595136 12.070460947487952 10.323555377563737
Co 13.345479430266426 13.790946315724641 14.577071741084637
Co 12.834392042637917 12.108097417420653 16.123554852099947
Co 11.730441831300968 10.664839369413796 14.737470757170978
Co 14.011132502087792 13.318330922203748 12.36454595026343
Co 12.189994334844444 6.176411014101079 10.278073033703098
Co 10.165958715912673 7.060684908624334 9.821551415904267
Co 11.67774526045827 7.901455959245796 11.770170792857025
Co 10.529380386926297 10.150516764802715 12.718427366415565
Co 12.846115589769783 9.391387336154814 13.211014590834036
Co 11.536816717595931 16.014115553545835 11.435812689472744
Co 11.553646829428494 6.7258647621341465 8.051087407865355
Co 10.274817237939638 11.916040800621335 7.455452183832737
Co 9.116121139881995 12.812993990271737 9.440001998243261
Co 10.754399358366157 11.691153352864786 10.688555213826685
Co 8.598300769031649 11.219420691003824 11.29118174768252
Co 12.809594840210933 14.426135404997764 10.522630934693897
Co 11.197765392945811 12.925252978858072 14.640931599660991
Co 11.502365853593531 13.090991599822672 9.00801271031927
Co 10.277900297224384 8.696608641746751 8.076067218514085
Co 10.10518018717024 9.227631441717469 10.662272009687529
Co 8.343021295224087 8.515250104565316 9.349197982119714
Co 9.490303668787123 11.25589686869404 14.455835463587876
Co 11.684279106818034 10.65646676022852 8.799080415773116
Co 9.91444011907929 12.649453162586667 12.71197634642255
Co 13.932603474909552 11.575574013351401 14.204013408563469
Co 12.166266693767373 8.360946885380736 9.48806389839234
Co 12.421231344683907 10.038131993963606 11.100344325523226
Co 11.91506826019608 14.257534369822288 12.789563178029056
Co 8.23957906759569 13.553696369468666 11.45781105446311
