36
Energy = -205.04585028 eV
Co 14.234297910097887 10.799592471293447 8.82275348452757
Co 10.122631000878398 12.069956244034314 12.797443444286216
Co 9.883276571669272 9.968315889843922 13.853729624035736
Co 8.439183047582262 12.533939128983071 8.384054909565192
Co 13.41938295291888 10.863371341381967 10.912410110768072
Co 12.618347790533125 12.535821301640253 12.377512109814546
Co 7.380361259451987 10.709928105868348 9.943946963141387
Co 11.160857281403507 11.431692145413592 10.695982642757876
Co 8.745996056010748 8.545544189777056 9.922833060944926
Co 10.854599555832678 8.409236925979812 8.652061190975376
Co 6.207494547043683 11.952409200144183 8.494303858289896
Co 8.974233302627596 12.363407909604655 10.654834554926902
Co 11.335126053151303 7.903904608522587 12.980709298886644
Co 11.836658229349213 10.13825566788541 12.721680593935906
Co 13.991708057197636 10.639635423025954 13.095728964743136
Co 11.048027662865108 13.771695649474077 11.103401206683746
Co 9.067768757825188 14.12466785185523 12.187818871238177
Co 12.8274026245608 12.390239891321164 7.652835068391483
Co 10.74748456348005 12.763206782900149 8.776596432357488
Co 9.592815788105671 10.539733198223363 9.050987337685429
Co 12.896771950533061 12.84230340343195 9.845456242867645
Co 15.160303640862914 9.462322323638643 10.970838603351526
Co 9.246460883548394 8.047822678391505 12.176799069967325
Co 11.05422758500044 13.961596826640498 13.59533207705634
Co 11.93042259173721 11.694925321680076 14.403024001434192
Co 7.119558571690089 9.00019419275311 11.488047615551325
Co 13.288473786293672 8.517987888911074 11.782675246703462
Co 10.931124452276139 9.085708609116722 10.802144569005321
Co 7.014741526424073 13.305077286274392 10.068983312762937
Co 11.82688916710213 7.037868462546351 10.694630798518357
Co 12.55595965073807 6.8899910987876885 8.541281863844086
Co 9.112938683968155 14.428601338788999 9.74304087468196
Co 9.901128534399247 12.375818547737302 15.018341250851808
Co 11.928106476224276 10.532899892947228 8.671392852311419
Co 9.025125719607871 10.272560575321226 11.722314825774426
Co 13.270390556306563 8.770895425717477 9.485380374859501
