30
Energy = -170.73447545 eV
Co 8.84322954321148 7.917841685906234 4.944790168708331
Co 10.520505994770248 9.504038622580662 5.654351594773698
Co 8.128979753618838 9.708022658371275 6.1328573147767464
Co 9.600842366468825 11.771528811450214 6.193051586912452
Co 9.794193235021837 7.682061651718361 7.038789876201317
Co 7.422739891741175 7.422446622753167 6.807629675085423
Co 11.79334418952013 11.203237642029032 7.107406093247668
Co 11.84289096958405 8.837382724739964 7.774564953781582
Co 9.89843316898564 10.14652317460596 7.726499396327511
Co 5.9608347156864925 9.239403437254815 7.4880237179159534
Co 11.039761703542393 6.5004589196001366 8.740452334152515
Co 7.847012154760512 11.29466073737432 7.9569270864646775
Co 8.007006887486718 8.936944826871336 8.365556684678994
Co 8.594120341453586 6.706063312062296 8.913187873670001
Co 10.088054697558297 12.251706674175749 8.558964423435658
Co 6.548878977512674 10.12426325730488 9.679270373313749
Co 11.412059721904054 10.488867813869861 9.535882897142455
Co 8.945392616990087 10.706081216201618 10.019610717122433
Co 10.069399640653122 6.918791835253547 11.022056276042154
Co 10.129809239362425 8.486704420037213 9.3572998649387
Co 10.52676274347719 11.49762632802821 11.461012284964326
Co 7.874048725952191 6.150946449661879 11.116891340671694
Co 8.108384139446402 8.51010117332267 10.725666884100702
Co 6.344161074657049 7.675564055105916 9.41758615700788
Co 12.205703212927524 8.03849431724486 10.095396362812348
Co 6.513470714238957 9.825342799414233 11.95951805094778
Co 10.622685267658376 9.179964829068744 11.522782167139416
Co 8.691552671275545 10.186763244675333 12.327655419218301
Co 8.61555948982702 7.763667122066533 12.775308197978735
Co 6.278413723367122 7.592731209911602 11.849241799126764
