37
Energy = -213.63734802 eV
Co 12.099761392605615 6.1282334834357455 9.339842784439785
Co 11.756117195764377 9.115997088640103 5.857679221707679
Co 11.341431934187492 7.736131884899344 7.692512777078727
Co 10.288864277862649 7.2561437285975146 9.919167479763782
Co 9.577804780784248 8.987456152262169 6.564219611815452
Co 12.556923564609304 8.301969818550823 9.723714125695606
Co 11.848846561980032 7.15244214463908 11.641217152776543
Co 8.68934809216959 7.886525747752986 8.349697331220346
Co 12.500274277399146 9.9198770158443 7.873993947994089
Co 8.090210871495835 6.523447057661856 10.259721851092143
Co 10.653630046224174 11.005924709948095 6.678309188184893
Co 7.102712769867238 9.199330346813024 7.3212449796251295
Co 7.141411406625571 7.383442255416253 12.137358585076674
Co 8.358827904641277 10.892480311935998 6.094606542095451
Co 6.579103047716339 8.032591604135643 9.355749178706185
Co 10.508997230030658 9.505488254988455 8.951644360415582
Co 14.140464327587544 9.871748898542435 9.636945908475676
Co 8.62136541798431 10.64295926867344 8.34596647599142
Co 10.95782639614253 12.021867236651714 8.705440753617598
Co 9.489480820589893 7.258524374855797 12.100196989190348
Co 13.025359139761301 9.248379889406348 11.808757316815178
Co 8.387935152123868 9.046849595192585 10.48315958416711
Co 6.1303704355053315 9.24136570210675 11.360526813627596
Co 10.674059286881576 9.247099412503516 11.634742918626497
Co 12.189631764337268 10.790736069571341 10.228293612249196
Co 6.591804199049242 10.40758104212997 9.386164704602125
Co 9.078777868054766 12.737206832926493 7.475394013684398
Co 9.68111455368714 13.803914853310575 9.496991863953932
Co 9.724037825758872 11.230311849200492 10.587178611618041
Co 8.409361198873244 9.247974079793613 12.820495868987088
Co 11.815357314042162 11.217197703362682 12.485217726490188
Co 7.585243179259485 11.074561607235932 11.558953437566569
Co 7.83432875384751 12.449307567476033 9.636101004587418
Co 11.278661340854667 12.9743402640709 11.038618760135616
Co 9.581886034696346 11.208713320480976 12.969070728217032
Co 9.018435249721668 13.143208348240996 11.718995959022317
Co 10.728640662446608 13.184151020740218 13.277613479802385
