34
Energy = -265.265945 eV
Co 6.201002821087022 12.536021865972375 11.846266707199819
Co 11.491636788182804 9.996265846740146 6.9933280157202615
Co 9.785709142560307 8.554008331300789 7.321612552894179
Co 10.709626962968999 8.797517339616833 9.755022635424382
Co 8.842665018522693 12.321589208675451 11.927449107894047
Co 11.108999485745418 9.007776398804465 12.45580909324761
Co 13.2085383676177 8.00372006639446 13.532765627206695
Co 11.093331511843372 13.589029358295722 12.431498888111896
Co 12.58778468551317 13.186210536160653 10.229321845748041
Co 13.250241144284525 9.411330854992821 11.051392731632687
Co 7.535796146998666 11.291206142367272 13.476270092488368
Co 6.653212098014918 9.819606014069125 11.616741181138726
Co 14.583321276509931 9.925272288884461 12.937762487109481
Co 12.82155040434828 8.566717556126047 8.74487086255574
Co 9.740663937512085 11.018622118967569 6.227215356566229
Co 12.317993849289119 11.13780103231131 9.240455988069323
Co 10.17622611551072 13.002929103237898 9.942694313547099
Co 8.326823322440227 8.788358960253287 9.672565792850419
Co 14.537577612637204 11.281892340951165 10.414978986435852
Co 12.15141663931334 7.302899319284522 11.19012450553777
Co 13.024856638996795 11.854264534381487 12.50535921682479
Co 8.971533279883264 9.910054860258754 11.699313767287459
Co 11.13490834758755 11.03299786162462 11.292543488958605
Co 9.309863756091003 9.42313956173321 14.170549281697907
Co 12.238111025918156 10.034024123394007 14.403718742001402
Co 9.871681215817732 10.879251123638966 8.8031108432208
Co 11.32861634521247 12.709945322176806 7.664144466736038
Co 8.430896946954174 12.782772005285247 7.881826524757355
Co 10.475906678767306 6.507671283334471 8.957254293826775
Co 10.414989436477171 11.523617367839782 13.519589992388905
Co 7.897139328256644 14.145843379990026 10.14322785465849
Co 7.959613418419074 10.225034954340195 7.533871586303635
Co 7.632123372936681 11.578143873484965 9.972926165347234
Co 11.662163687731283 7.1291513785267755 6.936940156208243
