30
Energy = -169.50013582 eV
Co 10.774073915363681 7.751608034356438 6.71126708339463
Co 8.043887152008951 11.147204500533096 7.0184581745608385
Co 9.317113848104706 9.31283420162013 7.543573028690373
Co 12.421099319974973 11.657254057267544 7.338775218334356
Co 10.164305120726118 11.500594033984026 7.929918825100445
Co 8.672608900634422 7.05478853259473 7.6768533812286925
Co 7.059999127350379 9.069013912007948 7.691765531812238
Co 10.55851547143344 7.6274274147737895 8.957516813531935
Co 11.669251536954901 9.562976294900473 7.9316145806261575
Co 8.184902153894404 8.32789934587362 9.530275579686561
Co 11.498265577550654 13.098014690535644 8.999675499110454
Co 7.896232931882749 10.755284990157708 9.245015882200272
Co 8.947089957291904 6.233160059380994 9.94471051830189
Co 12.595249771787657 11.031006723149833 9.518393114483503
Co 9.396267941214319 12.443195601845678 9.951223170984038
Co 10.17938666765493 10.111549953823438 9.855031129139265
Co 14.133344636222196 9.699538871493711 10.426578959388827
Co 7.535277087051127 11.941449540253084 11.293385765779652
Co 10.550092745566536 14.243437053855692 10.865714459408903
Co 7.80586509812472 7.425772475280733 11.716989359335347
Co 11.490766702982548 12.236068886604306 11.177373089886975
Co 8.186502075446866 9.761496115090022 11.428768992155774
Co 9.960042230141429 7.969129903501984 11.25461494011685
Co 12.71319972372119 10.407586326651892 11.98887947338354
Co 12.045298552175225 8.789228094758444 10.392771762356567
Co 9.476532089494142 12.650921693402674 12.322220514606975
Co 8.270763585085497 10.948345930197355 13.400715381418395
Co 10.292910949912033 10.463818109176328 12.292515049132614
Co 11.570291210866662 8.601675443013798 12.79892951923831
Co 9.094968914894682 8.681824205427768 13.300580198118512
