36
Energy = -207.18233011 eV
Co 10.061323377094693 11.365403304234823 8.906406264195844
Co 6.426939289342498 11.436255299447946 7.630080939907204
Co 13.532320370998741 7.275900262264137 9.677935929965292
Co 9.96971972019136 9.40842494863201 14.599062393751378
Co 7.906834265445182 10.582948674960472 14.37625535356459
Co 6.746193606884474 9.194210213184036 8.396273046413622
Co 11.3421197911902 9.52471580128049 10.09714403641346
Co 11.204677389136751 7.484034830021641 9.091885706537454
Co 11.902992922141044 7.497263320977332 11.324635383387951
Co 8.514526130253673 9.021799783392712 12.831091842731933
Co 7.336057389615841 8.892311168453089 10.734665564877188
Co 11.579816113402956 13.133439050397172 9.447325517295596
Co 10.43661769539015 13.23630208872306 7.43154497228034
Co 13.44789352170374 9.196978815958678 11.002228266020117
Co 11.52324913572511 12.798453123827064 13.165591172047717
Co 8.310766007765459 12.75827728291399 8.306377130928052
Co 10.794044755444977 9.420638215244537 7.679227366163972
Co 11.752714396695527 10.882849532586068 14.334441374543516
Co 13.072860113159196 11.232177951561962 9.932387929715643
Co 9.621090764360286 7.851858050278383 11.000744932776522
Co 8.919415851554927 12.525637906176186 10.715886123238185
Co 13.029203750668742 11.06826665796372 12.395941287052251
Co 11.187889008395139 9.487979055074764 12.528723803163729
Co 12.510326860128117 9.906577439043698 6.286277014989655
Co 10.334414069747528 7.474355469209219 13.224192104058801
Co 12.994410412233478 9.126633660310853 8.492209764074813
Co 7.431701494312011 10.995153301844148 9.627423779257734
Co 12.192722729305787 11.49706224208224 7.8267990586873974
Co 13.041479625225843 13.125096059836432 11.31790086139096
Co 9.257343184825627 10.204950720911105 10.964618110706162
Co 7.446497322636487 11.055473378408195 12.078409460410723
Co 10.349212599236743 11.273084688865454 6.330784481397881
Co 11.10477457326748 11.74852733374719 11.188333224674619
Co 8.993128260570462 8.869966266017439 9.005012946680782
Co 9.680787712792334 11.330589561605384 13.139219100532511
Co 8.454389145343251 10.526857896752174 7.32341711235223
