39
Energy = -225.90283195 eV
Co 5.944276539937097 6.762933013609125 3.7656555342842504
Co 8.070745987248698 7.940677578860725 3.7655444867076384
Co 10.076974091492854 6.507396910649921 4.680978512004935
Co 7.739795296585852 5.865724077642043 4.866992695985033
Co 4.043874681896572 8.21588014596965 5.589482343127387
Co 6.410498731779347 8.420955096558057 5.280046687508806
Co 10.456196534364784 9.534717350077807 5.203156485366688
Co 8.097933321235649 10.169432908530789 5.243321501726716
Co 5.280904795869041 6.125386805755723 5.912677810776177
Co 8.926026586232974 8.034980561111611 5.853790639558641
Co 5.433866153545544 10.17975188311679 6.543595749848474
Co 9.715490316440846 11.526049663979709 6.175147318250201
Co 9.332441703465365 5.599336624195242 6.750887501721077
Co 7.12478526058569 4.476137354137293 7.056226366352244
Co 7.243609905188418 6.777055182601572 6.918164382779191
Co 10.929733851279366 7.418565149979114 6.830027998663751
Co 3.4957938916807834 6.749920891894148 7.528994049983217
Co 7.472400066990715 9.299643138765147 7.335841269918263
Co 10.080587250057759 9.669697515726853 7.471269587097328
Co 5.346424490677587 8.042712534149846 7.43456907031261
Co 9.123532429626446 3.8222636601958673 8.467315816273596
Co 10.048464801046835 11.03087326853336 9.24184039592806
Co 5.770992064060442 9.824396976466979 8.953249522024118
Co 3.475764090798511 9.21343788769426 7.793388375395742
Co 8.179627015132207 11.303352406726779 7.893312656506442
Co 9.117926033027942 7.7180405432203125 8.284056913141676
Co 10.414686809123982 5.892945610139005 8.933580048696214
Co 5.555494094044834 5.766173928767643 8.437957476313866
Co 8.018238177343166 5.718421674245772 8.857040557527103
Co 6.834505032502042 3.8999161637841855 9.436570171284256
Co 10.439839906581986 8.69061221659389 9.794270270292662
Co 6.86790129564453 7.77285281128852 9.169163745312147
Co 4.591734512153684 7.815910485321425 9.620632959525452
Co 8.210135374023942 9.651188264257586 9.698409066833591
Co 9.022061097845354 5.105329458700089 10.78420529585829
Co 8.579667213466346 7.4433466676397755 10.756966150790605
Co 10.757734752372018 6.691300750548435 11.031890800563351
Co 6.5663957174663805 6.024135563624377 10.665813441482928
Co 6.437359977022971 8.532967124778255 11.208386194115132
