32
Energy = -181.43840237 eV
Co 8.574635247676893 10.666247251983632 13.891301471869006
Co 10.642184964562615 11.838008632960218 13.872886146821795
Co 7.672050166647913 10.77897036868922 11.80709585489374
Co 14.42510779278922 13.51089981480729 11.553568555156938
Co 10.125219934109753 13.425744689485903 10.944288071069831
Co 12.98777325145816 9.259813693424814 10.803278601570984
Co 10.493555856006468 10.24239124149862 7.869606738536873
Co 11.128549803612774 8.34966091384437 11.990452653956654
Co 9.284470588005458 7.481690295261682 13.341954423915533
Co 12.26429608564744 14.293475920666705 11.022750713542083
Co 8.930487645732931 8.729191280811671 11.391077857673883
Co 10.025715364657595 10.777138373556019 11.805659646622738
Co 14.958965027663591 9.920742466519268 9.550661180347372
Co 8.031366275729376 12.602896591542498 10.391292250440017
Co 12.721215496144929 10.227946147592641 8.736100068851842
Co 10.783140738979357 9.44147077487238 9.912129274194937
Co 14.372110931443448 11.617835154412296 7.906485258224761
Co 11.242238068633899 14.047076665288321 8.958459788635697
Co 8.595429445120562 8.674271559769664 15.143051584191408
Co 10.760592822703597 13.984635866017019 13.080369682365257
Co 14.048774068405628 11.273214723080665 11.199795546370213
Co 10.464452075040015 9.432385619741009 13.951038510809338
Co 8.606883434271223 10.371053424797841 9.683857730009395
Co 12.000161733378368 12.17707535466741 7.783387199930036
Co 11.828632996184123 11.6003542763047 10.472829938363018
Co 15.684103761436509 12.162732989408878 9.790051918245032
Co 12.517129127921267 12.629909769441602 12.564633348006332
Co 7.424487499807115 8.831940712228327 13.15467596085936
Co 9.992109104992547 12.032330868741102 9.009445787520852
Co 13.472840596624605 13.019818756794239 9.463645016058464
Co 8.840400032362886 12.69804458505046 12.631644085323611
Co 12.323539986122318 10.314377921902354 12.763778960515658
