37
Energy = -214.50509413 eV
Co 10.429186011760915 9.225264829147271 5.60998058843022
Co 8.195096108411297 8.949894387273115 4.982209945005957
Co 9.088135237908107 11.326437666260606 5.19176704667868
Co 5.900923836574449 5.194458348252663 6.374860912045721
Co 9.133015976101278 7.649055462382133 6.932755625359654
Co 9.163669801354837 6.4999755240919175 9.014293912725721
Co 10.689352250159683 11.229119502851539 6.995482403145543
Co 4.678633831288521 5.536200692657403 8.374817085350855
Co 5.71602193542219 8.895051701278073 5.052079426437506
Co 10.607170127829944 9.086800572879445 8.236698400971672
Co 7.480516156577168 5.3035173841545555 10.278848126701611
Co 8.763510594005814 10.060631383954828 7.031433610469793
Co 11.373861793620888 7.057022396594745 9.00422132645854
Co 6.84047293558606 10.807649276434088 5.9150918607389436
Co 6.809229919190938 8.700606478995319 7.041809200923559
Co 10.493786216108441 5.626534642077636 7.228937735860997
Co 7.137011138135755 6.92822493615178 5.500419637318534
Co 4.958858806504196 7.3137491822243605 6.725233437651719
Co 8.592535719348048 12.297965441001859 7.316973723225917
Co 6.709243014232829 4.221730961534675 8.332099399039333
Co 8.272360667881406 5.333983093733068 6.821484929734125
Co 9.483021663141013 6.599719271091465 5.039096214006021
Co 6.78353339222503 6.63052134175932 8.2626006371469
Co 8.241143284531153 8.73014710559694 8.918304581095363
Co 3.9686378831248996 7.801798299878064 8.694350892439095
Co 6.900268065651057 10.77293093115842 8.347938163348163
Co 5.919146066577748 8.834173648037932 9.352536999086396
Co 11.547080955290564 7.550248860436105 6.681733325902381
Co 9.23720006579797 10.85371242013146 9.185421209781216
Co 5.368843372339112 4.381534691056556 10.25181723299449
Co 7.590955228606826 7.624924039583137 10.836975222141719
Co 9.026688787499541 4.259738016058142 8.7717143614715
Co 4.844173859498485 9.714285852830239 7.359362496640828
Co 9.901136016444756 8.385256485354056 10.458552243489455
Co 9.429026567691102 6.2227065523252705 11.25336802314647
Co 7.576022280309833 10.002873124676697 10.667538284079198
Co 5.449005338741155 6.690030401569197 10.255666684428137
