30
Energy = -170.11251445 eV
Co 10.15064481156011 6.972426962032707 6.171068192352007
Co 8.325978678951058 10.449949985268367 6.005081103149038
Co 10.075619873070472 9.097298971051082 5.328604445738347
Co 10.55574744770631 10.621721824574838 7.015932860879671
Co 11.800103335395551 8.667566540659667 6.990164130557928
Co 6.972131624185469 7.55783825331032 8.626896053275734
Co 8.69671606348032 6.197951926043125 7.809221268635226
Co 8.58671835164658 11.19118099446735 8.152144580438604
Co 10.979676595807748 11.756078569723183 8.987820513362621
Co 12.28245346534195 6.463779653877102 6.654982415287989
Co 6.694321855010232 9.767959800133712 7.712250354360144
Co 12.498994434719268 9.84225271632503 8.928403374789838
Co 8.815895046378268 8.583191321616434 7.372177264415594
Co 13.08159532681279 7.606440502149881 8.613366140873788
Co 10.829497583774115 7.082957594376087 8.417702163008915
Co 10.27135797981049 9.48327295192598 9.076036569310983
Co 9.035356785146154 7.258399074179301 9.860144029784337
Co 5.718510022104152 9.285815121228987 9.857820701195797
Co 7.985376812393543 9.362173059676156 9.58264792813177
Co 6.837856298917024 11.411882214358046 9.7381491216369
Co 11.575660005257507 8.1444992305743 10.379818610586899
Co 7.283499927077483 7.864410977677846 11.248993769635545
Co 9.185428713560565 11.368734646299497 10.425803104592418
Co 11.246166840664218 10.4617260177326 11.0564067453706
Co 9.532972028528253 8.895592678525217 11.477564767792343
Co 7.187309359146886 10.177044224164304 11.715783523440194
Co 9.371904621952856 10.873559898781512 12.683618349528524
Co 7.681974936905755 12.425020779108285 11.814033378340559
Co 8.135344463000566 8.848360212957054 13.314964812547698
Co 7.387581683992468 11.063308269500011 13.764794699278314
