32
Energy = -181.8400612 eV
Co 9.921699424129573 6.983740505573797 14.46322446862342
Co 9.92586275568722 11.856325384211857 12.100461110980495
Co 10.45461240098241 10.285226674981676 10.113435052897183
Co 11.54118228330575 8.61716327586457 14.41248789595668
Co 9.950455212269214 8.092293078497693 10.574229070036829
Co 8.71628935739449 12.970028666021108 8.235959927700268
Co 8.565208757088866 11.587065337265171 10.143690835293583
Co 8.846973656498708 7.508047407477465 12.486873646364481
Co 11.048567334765991 14.948821567238642 9.748198125637863
Co 12.925041597478916 13.522824660301572 8.938520462767725
Co 14.062426609648188 12.497419377347631 12.700127879198615
Co 10.923700995089161 9.592245956273459 12.43239970583174
Co 8.685194133076568 9.783249237015204 11.700690492120351
Co 12.220434565317586 8.825281230919785 10.560797383214867
Co 10.57192913135545 11.020295330337492 14.254011023102962
Co 9.238129091739555 9.15376435752636 14.049683112527264
Co 14.09771076633315 9.824516196877324 9.869860176097887
Co 12.386887362220824 11.27217412028545 11.427923358691643
Co 12.662686154524248 13.681467455475456 11.222775821478775
Co 14.576609619394173 10.328923491140987 12.0353957793138
Co 9.279523486265004 15.208553944865805 8.338135091321664
Co 10.19337340199086 11.225046477633196 8.081380706015835
Co 13.190033420296217 8.599276348170083 12.625191379002247
Co 8.911008187635352 13.989156968306112 10.287629208841725
Co 11.15367364491297 7.271158141091086 12.497095056961
Co 12.434807820069048 11.21125312714254 8.989464250177917
Co 10.906524628900664 13.557209861458196 7.812740886369314
Co 14.253406923756758 12.145982608551604 10.321995950796557
Co 10.499607610048267 14.190757852496528 11.96419810879477
Co 10.838029245637708 12.67074253213117 9.982780355546716
Co 12.809569412794753 10.627642614507613 13.676545341114192
Co 11.779273711653884 12.753611928319906 13.265469455593413
