30
Energy = -168.29405352 eV
Co 9.696280105393015 8.878551632805925 6.5313581143471096
Co 7.350300252753663 8.622923755294517 5.6287913591816805
Co 7.876059808177603 10.664504116356673 6.355350697243491
Co 9.677504752746238 11.01707857933566 7.6791821119355745
Co 11.702180550562748 9.686172269945118 7.267679353659797
Co 10.764997378102713 7.0977291874793655 7.701732154294907
Co 8.21087325295161 7.222094501994493 7.173964872139987
Co 5.94466668396251 8.230094633612252 7.387950965086267
Co 9.958443015652609 8.827363726943414 8.920347540060991
Co 7.6440157510811755 11.767215109194188 8.602852757386193
Co 9.716403364004451 12.64624887999132 9.38042721792434
Co 4.778289983422297 8.85273628543013 9.250848994352435
Co 5.907351186303341 10.501404618837494 7.641689634676626
Co 7.808571463580535 9.321346187612438 8.295546332831258
Co 11.232635958397115 10.861528498073582 9.320741564638734
Co 12.208224688019644 8.406939243314222 9.111306074528489
Co 6.6667463479030395 7.534950807966792 9.446746575266278
Co 6.47806855764434 10.027736871516959 10.00206773447472
Co 10.881937565571043 6.8226183805458875 10.17840066291856
Co 8.856561221486752 6.749064925327904 9.290383553750779
Co 12.634166988709973 9.961822221827484 10.853120162586103
Co 8.790491612672525 10.7335197329334 10.278799614647445
Co 10.468300675605677 8.93743480612191 11.1967434306845
Co 8.224323861546615 8.479147742541405 10.817411449426926
Co 12.44632134130845 7.797130847374532 11.55989361021135
Co 10.599932052380073 11.598263370919371 11.452314557889165
Co 13.244960302993478 9.406431906919956 12.944451466274579
Co 12.627361783652647 11.59355568891151 12.381999128354
Co 8.752043488530138 10.00997225194273 12.500070823813408
Co 11.087299835943252 9.979733049989171 13.08314131647428
