32
Energy = -179.16902946 eV
Co 11.984428661283369 8.395670695954442 6.569205718096148
Co 12.646327664083522 7.396493324210062 8.519351635572967
Co 10.87532039757107 10.343008975202514 7.06243546881717
Co 10.589264353343014 8.47801166728396 8.421709563853401
Co 12.728053901309888 9.71531155906804 8.449530823794728
Co 8.844477860677696 10.80648115319346 6.358581717123991
Co 14.018803156198649 8.501365464218612 9.977774454181738
Co 8.770537111096386 10.181951118418434 8.526456845006054
Co 11.792377011166495 8.583762274569432 10.485823961959815
Co 10.81601143714282 10.73087720845158 9.4944230637697
Co 9.361797168526525 8.774428006719361 10.459975306709309
Co 13.07024936218497 10.610448003886273 10.508952748481159
Co 10.538921696753938 8.266909994118885 12.500062140144315
Co 12.11265888705951 12.371398571900645 8.681279775397938
Co 7.299237031486155 9.762679506620165 10.242086215369337
Co 8.55936512309911 7.326260349865574 12.903811709966817
Co 8.888677907412855 11.2690200565464 10.883150479670137
Co 9.847798994215799 12.270653862575202 7.82967508255156
Co 9.322716871268495 8.960326645887251 14.450475077984748
Co 10.961540499821098 10.495812843108467 11.880589611726633
Co 11.967427445159561 12.516485508155325 11.1001816926864
Co 8.300663740314755 9.453013811822403 12.363285501691294
Co 10.078755005945036 13.168629373837618 9.831434287174517
Co 9.337426377593012 11.199959632959784 13.472788481300729
Co 10.178388808874766 10.899252983884127 15.553644539113423
Co 11.456691228979679 9.825981802843597 14.05743296755857
Co 11.921529865469799 14.52870940171097 10.043722797140804
Co 9.837523533549554 13.056067151178116 12.17024769663428
Co 13.39503742518546 13.05845307909399 12.77844020548959
Co 11.512370432819857 12.128465338712717 13.572511759921882
Co 11.688491624181886 14.460805959639288 12.431994964210675
Co 9.96680528591698 15.132980544054876 11.088639576592405
