37
Energy = -213.75293604 eV
Co 9.221695750941752 8.017582471274022 13.006620850873992
Co 9.378340799362965 6.433200229503072 11.073656411240766
Co 10.785874233770134 8.556607554643527 11.441445543017634
Co 7.373243936201006 6.88782411375617 12.272752406925655
Co 11.576836723012313 6.275460811100667 10.60970321484179
Co 9.915904786909657 10.36517356781403 12.859407665620813
Co 9.28340263291167 5.677288273183339 8.858389068465263
Co 7.695644677632235 9.742750535129556 12.765819973818415
Co 7.322077496935686 6.56897207491734 9.919216233295076
Co 8.371619199645673 8.525427838673416 10.799576614507908
Co 11.547578414857016 5.982483697148703 8.371912315978085
Co 11.961649306369347 10.53895960984665 11.596015426111707
Co 10.263022720334057 7.826153156971795 9.1698144952263
Co 12.850992487303595 8.129196934042055 10.39676977976757
Co 9.70382836201585 10.60209851170825 10.584796317714904
Co 6.039224709650353 8.599235112263743 11.495035781259478
Co 8.41528438351285 12.035810521639213 11.789831002650656
Co 10.220020753336959 7.205499262023039 6.840816059568374
Co 11.759482224052594 9.853716700963568 9.440592236718135
Co 12.467612888443467 8.066894775808878 8.077335222892199
Co 6.4539721640138135 8.622079245389232 9.242200094248776
Co 8.177029718956307 7.491283944229026 7.861218741116711
Co 12.010749271213934 12.135408828573812 9.716475401352056
Co 8.517024343645778 9.673215630335381 8.593868431866708
Co 7.044402486453286 10.538285613827616 10.673910665560026
Co 7.984458205431999 12.145593466737909 9.316642686853083
Co 10.770089743059437 9.400303095460252 7.2635174243147524
Co 10.192187536465061 11.448596271635429 8.40339014851431
Co 12.358386621999964 11.048429719873202 7.517285610875247
Co 6.6762004539294235 9.308627688913818 7.015590430893554
Co 9.93417979780495 13.048958296544512 10.11027107564282
Co 6.176792036196424 10.967790302567115 8.525250064331265
Co 8.825148226678994 9.21906636436047 6.181309061195785
Co 11.498241411383146 13.239703294797895 7.683948750702879
Co 8.070339090538083 11.370333151290334 7.040809876328673
Co 9.200554223650316 13.398443071880372 7.727718060640093
Co 10.222839475729124 11.393666327231912 6.131829451734297
