37
Energy = -213.65650558 eV
Co 6.711066329779349 11.74955051852345 12.329842527425448
Co 5.995658984243581 9.713514446505739 11.351622275193055
Co 6.912623650021876 11.620105576469959 9.951098937217187
Co 8.655053817087156 12.682182960452915 11.399344798063431
Co 8.55000797143684 13.07422290829843 9.120396986887773
Co 7.199554479865767 9.659007605772109 13.279795993620619
Co 7.27133568341614 8.955459245664427 9.620234669560176
Co 8.96207723638725 11.206875627716435 13.3078256717128
Co 10.522373535517433 13.762274703958495 10.278151101073746
Co 8.519560240510017 10.60738835723509 8.504856220335329
Co 8.311374552419036 10.350642149597128 11.211893654049124
Co 10.13794557285139 14.432658295352343 8.051476657205608
Co 8.153383555100913 8.097719076365554 11.712034112605648
Co 9.789127283687856 12.275451606123385 7.359821957576956
Co 8.61522274179806 8.381986877278704 7.787276845960762
Co 10.811742674645213 12.316730699733059 12.231518214437253
Co 10.222696445961887 11.467788586498628 9.868449187687592
Co 9.341652668185823 8.834094267629524 13.586383684716267
Co 10.657226042240042 9.94354792117503 11.916473291104015
Co 11.767755857810007 12.855980240607595 8.504414473841992
Co 9.603862895706003 10.008279793415156 6.4867030652081645
Co 9.670698864865328 8.751067194883042 9.915188934386888
Co 10.461774870215173 7.553901100026815 11.86749053573545
Co 11.43352632278834 10.66963200843697 7.661367468783977
Co 12.45381524489499 11.97110838297984 10.600060027751462
Co 11.644320291714228 8.618339534762658 13.779157093472161
Co 11.9954595182459 9.723515556819871 9.749156043704364
Co 11.02931683001196 10.799308611621948 14.161417481152471
Co 10.924442639524433 8.412155507038943 7.902727007626084
Co 12.749697660476047 10.812881323986455 12.58319959260144
Co 12.653825147605012 8.544530723342154 11.743365516735562
Co 11.683370336554551 7.3653654704262115 9.864557536888345
Co 13.512878737700325 11.178727301077434 8.641852813978575
Co 13.18020112193479 9.006949631254308 7.774836144895417
Co 14.108353721420366 10.175067198493926 10.720142912959307
Co 13.880217879736373 8.079006375251742 9.772140769332564
Co 15.215464491751257 9.651648513334262 8.712391692624188
