32
Energy = -182.69805744 eV
Co 8.106716171020569 13.072575492469872 10.152390859203907
Co 8.77468654880121 9.096116330072523 12.720554147911738
Co 11.994938227844075 6.831395807572101 11.901828486793331
Co 8.051181913348456 7.114985258960732 11.335664106229475
Co 10.735987800374405 12.580247684502572 8.094374637976058
Co 11.247990195687601 8.83411706856439 12.991729156795623
Co 11.67943351271065 7.161627365758654 9.568396378045703
Co 10.566880876228247 9.237844939317597 9.215320720885718
Co 7.067389961316241 8.71876603514505 8.61445091600792
Co 12.743963119469884 8.940655974667287 8.40676119450888
Co 9.928449023693963 5.776724738296852 10.793241715606618
Co 8.943610945029217 9.369760006378392 7.469717161178438
Co 8.235058114648565 11.29849436615889 11.644804490802976
Co 10.304373422529272 10.381563950292277 11.371426366980684
Co 9.126505433032506 11.15809751325319 9.058971542515275
Co 11.124611982881982 10.324754619296371 7.26132803271376
Co 9.002242348952059 7.396481216803128 9.01000935320173
Co 6.840450043143444 11.043600274326538 9.719241670265028
Co 12.285085449769172 11.46075002802668 11.630384916952305
Co 12.369438628929142 9.159741056235779 10.88415467369135
Co 10.307663757283006 12.588286948314545 10.640795410002738
Co 10.797208204318256 7.801305168650013 7.42848256269279
Co 12.245561150680837 13.333867279766093 9.78743974114409
Co 9.809916916509824 6.774659537900931 12.991892062683899
Co 9.881672261686665 14.358982527013053 9.235940573108314
Co 8.237432248094546 9.328156120325042 10.4197127330967
Co 8.440563007247585 13.087110413538227 7.8513231930966
Co 9.292718204801076 11.479378378541385 6.430351073424893
Co 7.901861200271961 5.580439035941064 9.673923085800409
Co 12.025285397112894 11.070511939440335 9.401305377679625
Co 10.18312115036638 8.017670583660406 11.154799113601637
Co 7.244421575214565 10.981339300698362 7.493276513549904
