39
Energy = -225.14409816 eV
Co 10.782205171646504 8.436935014310697 13.84336390181252
Co 8.90287068024685 8.282657110464292 12.173787779833445
Co 7.5708934263404 8.880149716283645 10.180400768274566
Co 10.700124825438769 10.00927989644363 15.70639644742999
Co 9.194163255924563 10.060477341725822 14.03542630164786
Co 11.1664332627706 7.443942825835202 11.729920090271152
Co 7.88518045461596 10.380990056689688 12.074595008125966
Co 9.854767681226829 8.387403222762645 9.960972172593488
Co 12.727910377712899 8.892727306484415 12.631231448461829
Co 12.201528780218528 7.804837527624528 9.677133130639419
Co 13.479045694112987 7.068818515184546 11.447506123270358
Co 6.443053270006386 9.772531696299458 8.299967701990125
Co 11.659851290500194 10.744359863533996 13.737334790005693
Co 10.584348583017745 9.844609883797556 11.856462730226452
Co 9.141963016058282 10.64029843437119 10.07946925525555
Co 8.660969883973369 9.537347187175476 8.014781129703238
Co 6.552401191007257 10.990659121625896 10.26641144238099
Co 10.316998072392284 12.16481965249983 14.858913559003364
Co 9.519461217788969 11.965505043171579 12.72765479026372
Co 10.963087312903834 8.86730645557749 7.907919210831052
Co 10.21889557347819 10.109461124857942 6.180623573313305
Co 11.688791921636989 10.221738307142422 9.680286542938926
Co 13.772911877336876 9.238493591583133 10.581747370299686
Co 12.32826532479832 9.08822675082845 6.058032945502793
Co 8.12802208865355 12.597644976036051 10.946415316098248
Co 7.818742473083372 11.75822327876214 8.513297622116983
Co 12.83727968590054 11.136095174830254 11.700680891981825
Co 10.153940686113934 11.405124961260013 8.06552230453247
Co 11.653930939868749 13.013557727734316 12.960273242199904
Co 10.924843787974723 12.22081359507681 10.822243272239843
Co 12.311676877729633 10.97441754927762 7.284248223653014
Co 13.39293411118153 9.212982969829046 8.242761975182074
Co 9.893427255499919 14.115904863372242 11.71567617129885
Co 9.544188903400627 13.334251961538081 9.255835354621889
Co 13.667103549545294 11.404319619171334 9.445930126417664
Co 11.932485756429207 12.807652771126747 8.753591633878923
Co 13.019723218080511 13.31737705703433 10.867269463627126
Co 12.081288000440916 15.068369435049549 12.155644193180018
Co 11.318836900675006 14.679176640878417 10.005380850771886
