31
Energy = -175.23020029 eV
Co 12.00326392099629 10.07999570287583 6.538520223343044
Co 10.722926650537222 8.01031633283989 11.268530927889765
Co 13.753262104502731 10.565998292209928 9.806187268607454
Co 9.703246252898492 13.69087930471723 13.060521849359082
Co 10.2308640039515 10.542749344957086 7.974407488320091
Co 7.980901366334842 11.95041880274073 11.662451909701662
Co 11.458188688726278 9.540589002071027 12.838578319383025
Co 9.470977015658665 15.703556544611677 12.066773352458476
Co 7.885282083765812 12.596171507659724 9.280532785377092
Co 9.072349929567443 6.689851009714179 10.391090395034803
Co 7.86604167143505 8.68977579240359 10.698466750338316
Co 12.247131491163213 11.580159230988114 8.356281273679063
Co 8.879504332373957 13.913735194549915 10.790453772982596
Co 11.940139043122384 12.832276284067449 12.95643915828504
Co 8.876723201673252 7.680107457920652 12.521232294882754
Co 9.593749897406799 6.457979600506155 8.113499904691315
Co 9.299076720199112 9.902928687780575 12.084872932630027
Co 12.874897706315174 8.6088276858087 10.811560963040558
Co 10.66459101819634 8.280488511034493 7.1399761364794205
Co 10.26382825841211 11.354615527917067 13.717433510782495
Co 11.291931318247778 10.28288635116955 10.3125505286715
Co 13.045736672043216 10.896235563373097 11.950359937906141
Co 10.268232111750914 12.09796926038594 11.47884123353317
Co 11.44385588848685 7.061609239876626 9.273964964487037
Co 9.643732644460512 8.590571979512136 9.202656026574713
Co 10.272783552732543 12.664304195431749 9.231277156660486
Co 11.131256682200117 14.32584779723709 11.26827087713972
Co 12.293587115170604 9.087256213559408 8.569135175853106
Co 12.533657939692546 11.061489090990667 14.235763099308478
Co 12.401960063651698 12.544799201305905 10.473454526949837
Co 8.884215092986848 10.71350572844413 9.923809694311206
