30
Energy = -169.80204972 eV
Co 9.960527737052253 11.811148623396248 6.647931249526033
Co 11.512646115549114 13.293309760492418 7.622518649769235
Co 8.601850826348088 9.794468588493078 6.3946812326048255
Co 11.892320904599538 11.0303017485121 7.89857171227956
Co 9.493692226916899 8.023787222653546 7.788855023704883
Co 11.604187556522126 8.721378452216202 7.808137642363742
Co 7.728121536795906 6.721465022096788 8.491899618618998
Co 9.598912839825244 12.756340287420665 8.699256564461477
Co 7.463315074005659 9.026108856408007 8.274035931456947
Co 9.652050536200143 10.35934734483992 8.403044203196233
Co 7.764287989074867 11.530464744350711 7.772348984620889
Co 10.075055445947909 5.911591344917442 8.389871975839398
Co 7.4553283433086035 10.531809247316216 9.977842322919551
Co 11.131163037075032 7.457629425901663 9.749751158876302
Co 11.63076355847471 12.25128678511669 9.79199124832174
Co 11.387112179037354 9.833063629320737 9.878793594015011
Co 9.004325317732395 6.457915140541677 10.354232926767802
Co 9.15899228625284 8.763720451895617 10.121541741908835
Co 12.543952947689332 8.64356477842057 11.426053167326467
Co 7.711659187417386 12.749388057290103 9.921495761874201
Co 7.070670875675183 7.944563388833524 10.474433477011347
Co 9.576051689513681 11.32185469828826 10.777007205714822
Co 10.962998516029474 6.797342252341051 11.917493299420068
Co 13.375851342511323 10.78518573644478 10.377159655584194
Co 7.653808663776705 11.844351415103915 12.092463592448704
Co 10.399975269762193 9.042018626144511 12.105242728594565
Co 11.739862843376246 11.026328445409508 11.91255431642602
Co 7.949936445309499 9.582563020108418 12.018052125477544
Co 8.702718801714902 7.432972015731458 12.345821803967889
Co 9.666541466342183 11.023412449831273 13.03559864473981
