36
Energy = -206.51759943 eV
Co 8.865755723879856 8.681482652014898 8.84124848963073
Co 13.14408359538534 10.468702025017866 8.935811449420209
Co 11.486183151300875 14.525547633755865 11.277367547556583
Co 14.950020272302291 11.543218684275935 9.855671945144065
Co 7.6885565772914894 9.871627917613935 10.75592960125825
Co 10.174259617466927 11.565310495035664 13.988931037777892
Co 12.838139960598916 7.986728603269678 8.809965100484225
Co 13.015747101699759 13.00355873271249 10.41032528181727
Co 8.830016065777194 9.473232798148386 13.106785423565912
Co 13.55663278025204 10.948453793400613 11.557621794300312
Co 14.607133115031166 9.242209707667216 10.169732281784821
Co 7.5752843284695395 12.24468971156522 10.010799113964241
Co 9.34153898820368 11.48424890870136 11.881532285788055
Co 7.355527923064544 10.533656606420301 8.430248037426809
Co 11.452989611392026 13.863628619699067 8.88215434966876
Co 10.749875427042161 7.321394450458756 10.013073609507911
Co 9.821622085325881 13.245307595742082 10.393176199538656
Co 11.102812796914009 9.391059811037906 8.715406314450513
Co 11.290112728290165 11.723996649354023 8.059146297436627
Co 10.624750536958079 9.171484370568436 14.5081101526855
Co 9.006956382908188 7.451409645627927 12.038643034455234
Co 11.30339665296946 7.731521210320242 12.425155519563898
Co 9.886975295716361 13.617171767209351 12.849007985537776
Co 10.630518864822898 7.36388200373373 7.791378725223029
Co 7.158444914310195 11.13282817949779 12.607881437215493
Co 11.42595074326705 11.264661893712942 10.481957508658322
Co 7.772066387450653 13.25520199057252 12.042146062282754
Co 12.445327229283622 8.952352481960503 10.818120010371747
Co 9.906563660821993 7.063484862439324 14.072392815550549
Co 13.45532451570615 12.637939132166629 8.19515026160514
Co 11.829690927723272 12.418061233892365 12.454474688426053
Co 9.252884140388028 12.839646913585291 8.120165881865415
Co 11.46083535514227 10.107840477816806 12.672492633624387
Co 9.974173359124027 9.247552921777512 10.954238290390201
Co 9.3531157104481 10.982375397227644 9.418467658630563
Co 9.435277083959326 10.413073732687945 7.223834784079483
