31
Energy = -177.12548983 eV
Co 11.382565252626915 8.322226448031502 10.92711448579629
Co 11.657956647672828 6.714384905728809 9.213997361815146
Co 9.748640760089216 5.822460849975955 10.529183712482087
Co 9.538708956554157 7.583400668213362 12.030979534431923
Co 12.084074568374476 10.529006658120315 10.715393472141628
Co 10.214996206338833 10.010112574136107 12.205257452330859
Co 11.688753220433457 9.107569486190252 8.756887210450442
Co 9.855618302271997 5.720859282454467 8.144386456363348
Co 9.592658474327308 7.786104324136363 9.41833744039548
Co 10.696657979860117 7.756327208901125 7.187813844881472
Co 7.63750795029429 6.9929023986706325 10.78442137495394
Co 9.921423907481387 10.17289013910539 9.948653193865928
Co 10.701296603090404 12.368464849354618 10.415517704599953
Co 8.158667692502963 9.239354682865288 11.223143868567044
Co 7.627387580018139 6.0040446498198685 8.707973644935265
Co 8.674963202481843 11.593656198918382 11.256394482157
Co 5.9264662337440654 9.069582967840148 10.495780823328346
Co 11.28496299220283 9.973615367818619 6.5151540494512306
Co 9.202129254533402 9.685026296757135 7.754940172907968
Co 7.393613573982829 8.42223168124145 8.848093395873525
Co 5.611213412693991 6.990296265851576 9.505916632495676
Co 11.311937467448773 11.365948263762398 8.356723686184237
Co 8.449086011439553 7.336259609308605 6.999766692567176
Co 7.387622534221078 10.698061003798951 9.498251769271452
Co 6.015506331403838 7.433023131358862 7.266342642402589
Co 9.12136368765246 12.024719839359895 8.624638640668831
Co 9.403734781264118 9.040955031192166 5.526357291769942
Co 5.622413666679001 9.690395692442877 8.188788367461521
Co 9.389897158859375 11.404072913879276 6.294269721661063
Co 7.293376557631499 11.349747305164808 7.2938920287703395
Co 7.231517084517927 9.23868622308346 6.4465846883492
