39
Energy = -175.91479446 eV
Co 9.61561509476097 22.324812927479815 19.950389323635534
Co 12.846615366212323 9.984878458422013 13.033465721233421
Co 12.586340243460585 22.17046141501789 18.183773943267468
Co 20.053914569409827 19.879452169283056 21.66875862782566
Co 11.899380987952261 16.255575275610415 12.951810449809482
Co 18.973558991593446 0.5456989488520047 11.939073874221025
Co 18.62618534600341 17.680842420855207 15.834094193282048
Co 18.174989594961524 16.7789309726036 17.855851944887323
Co 20.455448752748016 21.395242079224325 11.229475987569735
Co 20.463191850570333 23.673772544668772 10.812706355983229
Co 18.737893461655798 18.533328805450733 20.694690624131507
Co 9.770090861385441 19.698461757548284 20.07299653813433
Co 19.92794502172884 15.361458645281523 17.999698167758606
Co 18.726557465497816 18.730196260557396 13.634094412604801
Co 19.765245868843135 17.825368931239918 18.847754074922044
Co 20.051737915406502 13.037617959862521 18.15955495286871
Co 22.328067174583087 9.696867218852013 17.113477930672875
Co 18.61601699990077 20.502296599213654 12.269215583289064
Co 20.915261652402535 12.294177349379963 14.492478467821924
Co 19.76557376461734 14.24572007732025 14.113953849555394
Co 10.77446936271556 21.121249382592946 18.601943622319553
Co 15.718701977998574 16.7621965698253 12.38906107063657
Co 12.384394833267566 9.484944285771654 14.845298253757182
Co 22.347117683337263 10.469546952507109 15.008650841751768
Co 19.22956253997511 22.691621631745857 12.554121321411836
Co 21.254792365290314 11.670044439274491 16.600292818078493
Co 18.893075559486224 16.379716051493823 13.847965283731892
Co 16.900004713491725 17.343964993611408 14.103811683547466
Co 10.336804228401588 9.613753182484702 21.10728492402874
Co 8.366123040798133 20.95128498505974 21.034199694601853
Co 13.826420097372065 16.7790659887078 13.424815258101708
Co 20.648143948717806 13.921339497509761 16.20805919021312
Co 11.36697190349205 23.520842292909506 19.392524230686877
Co 21.308453865284953 11.014234019412974 18.713968573883314
Co 18.815738740400715 15.369933422374716 15.948420962452486
Co 10.079763285656833 11.606047883757618 20.564095091475664
Co 11.47224343412739 14.812170853238424 22.671353045382368
Co 21.173330317371985 19.002480026469012 20.008370373282823
Co 11.336023914828829 13.257106400686101 21.31082156411266
