36
Energy = -197.90061237 eV
Co 14.91759693817443 8.958214471020618 9.98703719725447
Co 10.463314644133476 8.033226224432925 9.606703877756805
Co 8.875741037315898 9.358552783284555 10.582742258652582
Co 8.453778398861086 11.289357474998248 9.467909473270252
Co 10.416474191390156 11.462081035306927 10.487224182439276
Co 10.386041679400881 13.691820870054336 10.941073388878074
Co 12.462549092106324 13.79078080915264 10.033936494461498
Co 14.567694786857292 11.356922967757207 9.913174344576055
Co 13.36524164520394 10.449854892512032 11.655587281057468
Co 9.063614834015887 7.096724794335193 11.294741818449957
Co 7.715439240466899 8.976123842049851 12.593939226659948
Co 7.103888783212453 10.855881151751161 11.330289986744877
Co 8.377954810949042 12.76728704522483 11.669225704640164
Co 8.800323091923655 15.23482305096805 11.674677574324633
Co 10.815335627019316 16.01413222722837 12.343350728909572
Co 14.29875001803254 14.980752241585117 12.661181264465435
Co 13.875098132040991 12.774006585859441 11.756562346437144
Co 15.866952522425304 9.990340318770103 11.660994137167975
Co 14.72736600176418 13.709634997410626 9.807339345344847
Co 16.078769809073737 12.265907836877387 11.372320340923856
Co 11.428269619534033 7.142680867277153 11.434701759679298
Co 14.845762428612405 11.377458323871132 13.315923089318947
Co 9.916754807988461 8.440005748730076 12.786782660015684
Co 11.242497959011438 9.510648555869954 11.400686894119122
Co 9.249953769066664 10.769044139896653 12.46845662923548
Co 13.63203492138699 13.297848319412314 14.067848232019317
Co 15.81464349909652 13.415150166815263 13.342626121580311
Co 9.832313288365253 14.003465994721832 13.251817733010482
Co 7.381262727685667 11.623910140616886 13.489197930734203
Co 14.801748430755538 9.086746094950687 13.470325611164103
Co 7.491332058769692 13.997746338541818 13.363570945551194
Co 13.548324626646028 8.158853249161355 11.83185192618249
Co 12.69872064423305 8.793710901174846 9.818204248148243
Co 12.086169540151253 14.175678085877935 12.459688521727175
Co 12.940314021253021 15.85762157672728 10.992915157272769
Co 10.831748525895742 15.665834219093435 10.068601433302092
