39
Energy = -193.28562561 eV
Co 9.536182574487324 17.355570978259006 18.328428918781732
Co 11.229186799593244 18.26174877972169 19.68088250812643
Co 15.809821694140496 14.017810384082582 16.712662902775996
Co 23.13555379803232 11.840519795427632 13.523893787480116
Co 17.420735108112385 14.822985316222246 14.744024145347897
Co 23.409213377820304 14.000177783829201 12.662646060912092
Co 21.435285967706285 13.23273745116743 13.221487198039513
Co 11.58197954542617 17.653031698214228 17.479410074407948
Co 17.64322132726051 21.638443842960786 18.813701004835256
Co 14.133659434974192 14.333905271164655 18.155788701806745
Co 19.34697640947251 20.429646516795813 18.0345593057838
Co 19.44134411043727 12.59268067671047 12.559202981517982
Co 13.559963016890556 18.221281498017962 16.447619207427763
Co 16.22684188325829 20.373815973692675 17.627589956654436
Co 19.385317123154437 15.666027132498044 12.022220771337945
Co 20.24160101532164 20.10226849957784 22.22537816277989
Co 13.925983132734284 12.764889892450539 16.367651260106566
Co 15.33339218608354 18.396438044352994 18.050337328503804
Co 18.107197626997586 18.83853004134578 21.298923858924937
Co 16.505858533124922 20.395818031324747 20.42382795618844
Co 12.890079698734532 12.480394077683954 18.412299198814065
Co 18.04030831757733 21.139694451336606 22.128018307531732
Co 19.215657860900926 20.580129408902053 20.28000203365331
Co 19.619401955467804 14.480029697218193 13.902986849471246
Co 14.980654870534181 12.019496404996824 18.27705387492918
Co 21.211504885745402 10.94677924012654 12.961979497468175
Co 18.746151413723286 19.226378586717825 23.393908093152845
Co 15.183235091234536 16.594099197869888 16.621891555518157
Co 21.51274278429556 15.574941407576844 12.971243908536962
Co 19.1676909281184 22.306632389299903 11.928698547213019
Co 13.188516892588996 18.9483765697657 18.655229066864628
Co 13.454841613063437 16.594014811706668 18.227193173951814
Co 9.163723226954902 19.053478374625623 19.529772764751783
Co 17.64467760771211 19.107960327747755 18.89257318329623
Co 15.276580720397371 14.906654253588142 14.750983418301836
Co 19.45219300662511 20.251668670294205 12.308280011632274
Co 13.495070503341003 15.152058576329402 16.17644992366767
Co 19.87796140642133 17.716857330929358 12.605884094088434
Co 17.700686616887968 14.121438383593937 12.691204657197574
