39
Energy = -225.51517153 eV
Co 11.207236376646877 14.301743266444195 11.799167198360822
Co 12.980412958926324 13.468722987313653 10.52098662114235
Co 10.929609983158528 12.402726345573104 10.494897699324396
Co 7.537164282585105 13.558046794061791 12.435962503087234
Co 9.688006101924044 12.835426020636312 12.563028116760066
Co 8.685518956959678 13.111300876858218 10.4367629709718
Co 12.180547611120584 12.361403742125376 12.742637725304775
Co 12.376366586818861 11.977242005918537 8.73730156887175
Co 9.882133727200667 11.895506766451502 8.424215653700625
Co 14.291618449277934 11.276698173227066 13.170406184588787
Co 6.792413808944664 11.684394406376958 11.322260711297075
Co 11.545321662068673 10.322036690359738 11.658915539194055
Co 7.8804911881620905 11.400342339518199 13.322881219743682
Co 7.609884521238957 11.524880970596254 9.125961426400288
Co 10.253260206643356 10.840938426690226 13.542189016717183
Co 13.653375578849658 11.409814911711871 11.039120425974675
Co 12.412607876406895 10.294368127320963 14.00238643750084
Co 8.326667893377497 10.82896488504052 6.946253704514885
Co 14.447960419191734 11.122941188826553 8.806648157252239
Co 8.745099924983043 9.215990677029405 12.975910520478807
Co 11.459021903638115 11.786341309367106 6.6789232208093665
Co 6.490248474510965 9.633161268056927 12.703996889878018
Co 9.061569028985826 10.891633169064127 11.167570569371895
Co 13.501054341702824 9.253346853161789 12.253715691177169
Co 13.368914617491349 9.437312896796797 9.852910331127058
Co 11.071012297435152 10.052085085125062 9.411480880524357
Co 12.67862852882498 9.831594147390245 7.619829630819946
Co 8.76353146692332 9.596980193017938 8.831629662787382
Co 10.398931193865248 9.846407644146936 7.048479239045124
Co 11.04498096084143 8.528067183403554 12.996660863298066
Co 7.201824855637657 9.448608186942186 10.551613185213654
Co 7.594975015594246 7.58141242672104 11.779287303512664
Co 11.882252985618901 7.968526352702035 10.760733486341064
Co 9.644656823366155 8.522041288232453 10.972212111432757
Co 12.730100840565013 7.667544327322524 8.487314783529799
Co 8.86703868841009 8.101114888539259 7.070685265317639
Co 11.28916387365287 7.8514720777776095 6.623080515207737
Co 8.183112891119643 7.479330892803777 9.452539246822603
Co 10.451505744277462 7.797752854293136 8.77766636954246
