30
Energy = -170.36793638 eV
Co 10.216803906650046 12.149759588940698 6.53484829052363
Co 9.288878618749195 10.080996546035614 7.11293876076353
Co 8.905324396691912 7.760978896960146 7.940499810941928
Co 11.113512767581911 8.591149896432173 8.187235843884682
Co 11.369179334367791 10.895782806646189 8.281101518011502
Co 7.581176806176619 11.587313853884954 7.117929858379185
Co 13.252529765085077 9.847945525321052 9.216983428612952
Co 8.67711926426455 13.568056231866183 7.223007788574613
Co 13.076437773581098 12.1983192337232 9.145128808495599
Co 10.208978916408622 7.400040948767639 9.996078108338482
Co 11.129105116627088 13.270161459581098 8.303350834313846
Co 7.186326858003252 9.474367838017214 8.226808941915989
Co 7.866449446831921 7.694042008573458 10.060878527534157
Co 9.275058186039695 12.031213429670917 8.776088762859896
Co 9.185482337543773 9.645379848091757 9.34144848043288
Co 11.335679650112244 9.576511548239143 10.439484179049318
Co 7.1353146944951185 9.684280367076791 10.874102974046743
Co 12.970416912081879 11.091052924729532 11.208159335353344
Co 7.2056232422947355 11.443783748214459 9.454689395756601
Co 9.019731600466734 11.273562022511491 11.131673563278161
Co 11.06414315872477 12.016685610279225 10.389127409910698
Co 9.249371778157167 8.957800703586608 11.61627430039663
Co 12.542003691556237 7.666854837446188 9.824308272997614
Co 11.23263877784502 7.88800345680774 12.147178146601313
Co 7.400316513310922 8.351995309564078 12.822814749568378
Co 10.907357417489033 10.32625563497765 12.57686127117805
Co 8.553761142200337 10.39032667203422 13.247265663754735
Co 13.233795691698397 8.87493995194598 11.708602333574262
Co 8.958291213703395 6.734866215348212 12.02808710843334
Co 9.563468293184204 8.231850156649893 13.771320804441755
