38
Energy = -219.74537754 eV
Co 8.510678100136142 10.204237832937412 6.631105217464268
Co 8.739789300629905 7.978293699589496 6.874880531636431
Co 10.997527268790684 8.968489073253656 7.043468413843717
Co 8.9348839071939 12.573653139260395 6.205644982174077
Co 10.501923608727434 11.223217165123938 7.2978725325542495
Co 10.253204924834616 13.50068808756474 7.940147263360482
Co 10.456334232401021 6.98988642114287 8.147510577512767
Co 12.254456163182013 12.317527627662777 8.397742210408163
Co 7.2087129896763145 9.39453160147869 8.516289474654014
Co 8.236315939569636 11.78092520063987 8.27202841531654
Co 9.462370709137618 9.505977732118494 8.761779265210107
Co 11.781894626422707 10.050637682933914 8.995235751860603
Co 12.504782875673087 7.871306231400573 8.821501322655974
Co 8.303520178633706 7.25404047627006 8.992707530567186
Co 8.047262162527586 14.03327610065524 8.041521485752252
Co 10.230785639701855 11.9336889052086 9.737046677690252
Co 11.70591042654164 13.862881112541412 10.025080295246386
Co 7.904594819998641 10.808336450429842 10.336613715704956
Co 9.427136971279838 5.365656882064205 9.619407506898765
Co 10.69019812556071 7.952285458454603 10.288029833445563
Co 11.751782535045907 5.730106388667315 9.639181484640478
Co 9.356866152791083 14.052425805418965 10.088405155912428
Co 7.283572311001264 13.062024067326474 10.037639001160684
Co 12.717842395344308 6.991322745175138 11.241549502727493
Co 8.131701915173315 6.333384464076208 11.294455990250187
Co 12.37229900220263 11.590946969713439 10.702635300033222
Co 12.5836623088501 9.2905165700294 11.022165099407566
Co 8.237093504443285 8.630923337121827 10.773247333572922
Co 10.202270888880793 10.069453304431484 11.187283802578495
Co 10.406465645522827 6.157433807759687 11.612272078940453
Co 8.721660936065922 12.386293134990852 11.764483174493234
Co 9.166745338263867 7.934772941805201 12.723051148637325
Co 11.399123021604371 8.290092638336814 12.700839183630006
Co 10.912034493439126 12.86752812293697 11.940858052546263
Co 11.591984216300807 10.737586093296462 12.868091734549617
Co 8.432357596521088 10.210376939513026 12.691262356399829
Co 10.068232322822142 9.534520113406403 14.215803508168934
Co 9.771977095806234 11.820710325963587 13.81111773909329
