33
Energy = -189.48110095 eV
Co 11.588006408739874 10.38072166766724 7.923772994114527
Co 10.202628313167484 9.220558349049238 6.416238190279721
Co 9.224314450037351 11.09341812561873 7.495738029084624
Co 12.06035495374156 8.07886622180971 7.491841694823114
Co 8.077463808711835 9.923213959499472 5.730303325710047
Co 8.691651527470253 12.645713473679955 9.162696466835625
Co 13.228058660395998 9.304490981958567 9.147557236774684
Co 10.940459513525662 12.617501672909304 8.31535587106661
Co 8.155396581969732 7.512941424461348 5.817663982508975
Co 9.969091026356955 7.060046007843275 7.2486830779446
Co 12.447888613702448 11.386503063199083 9.939991119978929
Co 6.806667797837743 10.65806241615018 7.581023636762125
Co 10.211854438599719 10.967658210033527 9.785523861829628
Co 8.274590825150252 8.845555964316981 7.740329889871211
Co 10.550783055611726 13.100643855904488 10.600718845570922
Co 11.917776020558675 7.130888169129054 9.582840120191372
Co 10.96207170974624 11.222090535353749 11.969026501019568
Co 8.655817952349786 11.716861929545013 11.4537522592646
Co 7.912730576319285 10.467504526678553 9.59067029354967
Co 10.258987571430264 8.653502702249284 9.044964472843578
Co 11.7079185852388 9.239935290790083 10.82971848886019
Co 6.193039794834903 8.167997948522949 6.999516378713079
Co 7.685248173222234 6.587693776451238 8.006567077111765
Co 8.1155601276453 7.990631995835842 10.010715435991674
Co 9.326057539100853 9.51114957317795 11.535985797275401
Co 6.140586855456339 8.955435390735783 9.175082619227716
Co 9.636516196935405 6.226367515599335 9.378837805377364
Co 7.00808973193153 9.591985525161276 11.517250794512558
Co 10.236264035356449 7.423385892072755 11.24832409086874
Co 5.600563206997822 6.712756632261794 8.933644019467065
Co 8.059035160480159 7.51344560508902 12.226930263749583
Co 5.971438527111125 7.481516174531812 11.090126800007
Co 7.4458866468943015 5.839450109818463 10.306555059757114
