35
Energy = -271.09087766 eV
Co 11.280870581902892 14.49186276671152 12.278196321991475
Co 8.331829280091494 10.541898581603386 13.155803162681766
Co 11.091769654597725 13.494958008244884 14.72729586415388
Co 8.973179908895725 13.067739445786648 13.30092975899796
Co 10.668869124646875 11.979874042505482 12.754699071907451
Co 11.31446554110443 10.796684053573115 16.749902223489535
Co 13.332941755689925 12.001232193420307 8.107417514409278
Co 14.670308700858179 11.507379265139841 12.115580089042664
Co 9.60862125783338 10.738638946507164 7.001278893286909
Co 12.047161395097532 12.354026209625774 10.71732559484415
Co 13.429008424271736 14.256220556335792 8.300582917231313
Co 10.43241511982659 9.438039068984807 13.201247107293122
Co 12.324361132203219 11.040118985565542 14.283886936096229
Co 10.10148340343358 7.061567325074173 9.894999799706223
Co 8.896653723932024 11.987593009396459 8.664905924370348
Co 13.678996958457075 8.35143134564065 11.25092254803581
Co 12.957729648785191 12.748548384317013 15.847629936097935
Co 9.771553330127189 11.292023703388894 14.862376973270448
Co 10.77153713176329 13.123890903834399 8.26686478440195
Co 12.658541642551874 10.382428634749756 12.15573995710031
Co 9.75780076970539 10.808894584363976 10.974315158003964
Co 9.035042713075097 9.163335108935536 9.061547234308653
Co 11.357130671022432 8.831214125280756 10.556378507634287
Co 9.644611134411845 13.50849585907869 10.77824998492584
Co 12.558451713612657 10.340420790835172 6.710889408281578
Co 10.971352008771719 8.510372724909516 7.8295657977137445
Co 11.943143907728324 14.69856483496087 10.072875925681497
Co 11.196022857913915 10.680948175379523 8.931150990446993
Co 13.266509327851859 8.848906597750203 8.497909687880027
Co 7.973136801692344 12.301835568617877 11.035370398112034
Co 10.217068258754303 12.741276628084671 16.694775410158286
Co 13.643146621199486 10.616887453538041 9.82504816975642
Co 9.11187746952855 8.686860266792905 11.618961625078132
Co 14.318503482661452 13.05088164572285 10.366241958282181
Co 13.037275723361786 13.039055080211885 13.052285163081045
