31
Energy = -174.24749426 eV
Co 9.538283326029255 7.783049517096713 14.742495899271013
Co 9.139413936819578 9.881004290693136 14.303039044717439
Co 11.290064411797289 8.398999511818886 13.492148717392062
Co 10.292898180738378 10.200403831722683 12.344732915745512
Co 13.11358883881406 7.637543152701615 12.046796136407417
Co 11.747123351992785 11.666923039312515 13.230511871249588
Co 7.46508612418698 11.280586665213228 14.166906143590465
Co 9.003310030876085 8.23848324611541 12.504839570862199
Co 12.675147150020894 9.825638608415861 12.042603651159231
Co 10.978068245770626 8.097772234248987 11.196638732860995
Co 12.697909962428568 7.770710567951549 9.734165734876658
Co 12.813245257316185 11.86867188864121 10.980573501025557
Co 9.355960992492909 12.166082778918534 13.1236026924266
Co 7.913738097302623 10.384126697363849 12.128043114660391
Co 13.525644125981877 9.919930369047332 9.749785525094643
Co 9.056548198250772 9.24178642769244 10.320136991739737
Co 10.951550700179785 13.148824892929436 11.592556173898656
Co 11.257049414772355 10.258072052105833 10.185165445519031
Co 9.24940803428604 11.813226595735562 10.7914268609195
Co 10.763358379375308 8.53064851989328 8.701438711752917
Co 13.35025245486026 12.193468663634725 8.655782576362954
Co 13.143700817815752 8.714663089818094 7.7568990538474
Co 11.065725708044292 12.434900857683035 9.194030943533269
Co 11.90678101175586 10.545560228927135 7.935044183911405
Co 9.538353426338086 10.676892538814029 8.538625934781415
Co 8.810704951822167 12.881825001648709 8.835202393424073
Co 12.664132219447746 14.022318725460774 10.10551700319693
Co 7.447694763806777 10.816909495210808 9.758647689223414
Co 10.289117694488265 14.516749763509086 9.762538284789079
Co 11.946946296004876 15.926913111159767 9.084488107754543
Co 11.926801952539229 14.074921692871259 7.913224450361741
