33
Energy = -188.5426938 eV
Co 10.563464832347407 7.480939456440218 9.072349145231472
Co 8.21079099830334 7.614946838886976 13.385155177588635
Co 9.573054356812507 9.781159187493799 8.683615292719953
Co 12.08945885079894 9.58928728675485 11.807219587953249
Co 13.932286899826627 10.778558148001549 12.51442339966088
Co 12.326571259466848 13.099473488552368 9.68994784206367
Co 10.247108036982976 13.350273605100497 11.026258125110287
Co 8.716585844635437 11.536150526061496 10.693657085201929
Co 9.15742953837397 8.032443372489123 7.134471949113864
Co 8.046157264943881 11.582054544879169 8.391127251626838
Co 8.16028514420146 9.760492389456518 12.416260200350642
Co 7.430090907102193 9.439876960523588 7.717731968992379
Co 11.052636844902715 11.187761795047695 10.21596888106909
Co 9.275027824627053 7.011446428109051 11.464941794306485
Co 9.804399087340332 9.152476691752303 10.871296950679282
Co 13.425353688993193 11.02252708377533 10.224045553606265
Co 6.0678684931984215 8.105780306838335 9.20255160371876
Co 12.051983664574465 9.226156905807482 9.425056075943477
Co 12.286834836198025 12.220960142489202 11.99988216118603
Co 13.894741767840431 12.24776384624192 8.339575929721537
Co 10.190354621522287 11.081524401929181 12.468903222242613
Co 11.945822269478734 10.537994350231525 13.83215737931024
Co 11.505664468849247 7.465644300493974 11.147493149166225
Co 11.244407177207822 9.030435155393349 7.207714622691667
Co 7.088268050785806 7.9321656294370975 11.391815795720728
Co 8.312039245665604 13.548502701849506 9.783623379660602
Co 10.224597692597396 8.792525809082832 13.146592120457711
Co 7.4139089107325935 9.778674156874656 10.053929727585583
Co 10.131636785529198 12.673061669274949 8.679702798790622
Co 12.145486138673538 14.418756562570417 11.548099643113277
Co 9.887924790169954 11.094701417597001 6.906079951358204
Co 11.974776377472232 11.142980557249958 8.01831046242234
Co 8.273789803901785 7.702112112762453 9.301177997634891
