35
Energy = -199.89724205 eV
Co 8.488027095570466 10.065938094650326 9.26229116364826
Co 9.715045556166082 10.681354407422383 13.747167972932587
Co 10.95918355885093 6.727797115703615 13.806272167377074
Co 12.042034156226737 12.078170725915559 6.8749286868585155
Co 10.700023647830687 7.530830469197285 11.502268313753582
Co 9.249545988617779 9.678421970299915 11.321652464457355
Co 9.17433362067008 12.729814192465534 7.3538663412883825
Co 8.959001077898158 12.473122665608797 9.727099502849972
Co 7.5487466041587306 11.615867601927407 13.475014996453366
Co 13.69513065859474 9.225677087499975 9.124884445977187
Co 7.422384154623006 11.25078822734296 11.048032544631408
Co 12.757048561098387 7.900416329193309 13.137410441448244
Co 12.659109874188553 12.880539467901142 10.77108594036149
Co 11.657191922968156 11.9376286609715 12.73454243158664
Co 9.508149851224918 14.535119587526417 8.937693819533028
Co 9.473759855684554 8.335976586136745 13.27748032374296
Co 11.352760777608411 9.584990395705187 12.296233033562743
Co 11.191228080773506 13.090090563151906 8.787633008652193
Co 10.275662694806035 11.23792689519864 5.8451673549612755
Co 7.542199180420901 9.54044686072083 12.808927629012732
Co 10.893338849449602 11.37070894687452 10.549498856751942
Co 11.228434279029353 9.237873237139604 9.650452029794666
Co 9.260637541233548 12.23363316956236 12.094278592019059
Co 13.180585976653752 10.240664604790673 13.562145805845974
Co 13.230919409342762 10.545455842784522 11.181366509772218
Co 11.60675720185894 11.294103672498327 14.96696137638022
Co 14.607752221566912 8.992260013032828 12.168948188602347
Co 7.170874666654429 11.847876391837124 8.53103051823217
Co 10.562926796504634 13.775969934107117 11.00004689928312
Co 12.173892884290158 9.768446013938352 7.348709554425364
Co 11.280157196265513 9.050172870852789 14.58394568294302
Co 12.891613335787731 8.145440492042445 10.880611930498485
Co 10.332350279655447 10.835572478608668 8.129487334031332
Co 12.725426969385266 11.273004545950624 8.991274922582642
Co 8.304876158582873 10.594922750791099 6.999730049781997
