34
Energy = -195.36079581 eV
Co 7.1594415840648775 9.966610749414336 9.680102674307347
Co 10.814730132662316 9.140882626165789 9.713887955857823
Co 7.929746362381814 12.919435791190066 12.428864775204312
Co 12.594098426872641 14.103894316996731 12.77924239284912
Co 12.80968154378277 12.821588178590877 9.463176341429635
Co 9.056794741432238 9.867143320777473 8.349600791572831
Co 12.515990868810645 8.266444890492924 13.086257714732309
Co 12.755032600448022 8.221198508935995 10.67618755809058
Co 11.719267108715878 12.008863530587998 13.526491241202631
Co 14.144067965101856 9.766208778303916 11.573802182596573
Co 9.577893780482063 11.41819847652481 12.858139128500957
Co 13.424184106865033 12.10049805337718 11.819836052183748
Co 8.707411460926545 12.178387733486817 8.54865493592263
Co 11.173355325908712 12.177533477360942 11.080463213061632
Co 11.457873438022219 14.448161043782633 10.658793934441213
Co 7.541338507265342 10.514059800452964 12.020780181529815
Co 11.054963836942877 9.804547417934224 14.162409324081233
Co 10.707403046946952 7.671672306172877 11.60417680074152
Co 15.012891112833964 11.63123224670203 10.322342810571335
Co 10.263984575059432 13.689697675851885 12.669816425706331
Co 8.723746407442293 8.54005114501258 10.594015803589574
Co 11.50437796011589 9.939267764268694 11.87705399835842
Co 9.23735326964953 13.398632651584684 10.530739261610075
Co 13.820427893604402 14.348219234873868 10.81690324756194
Co 13.364012850147484 10.336435396243376 13.662653379432504
Co 12.816613124876561 10.5450793934701 9.883543758585274
Co 15.474740848017323 11.224623062174038 12.758833729436681
Co 7.224704715023305 12.155272607694954 10.358974183769467
Co 13.976141339317882 12.680583170902029 13.99905473748988
Co 10.633683633474034 13.628363236908726 8.64866713373157
Co 9.332408133725272 9.128936262928555 12.737494147320326
Co 15.351621727380536 13.374708624059494 12.168529142873677
Co 10.922883334609509 11.356978987507214 8.786443537774925
Co 9.230987356028608 10.873255041932566 10.474799811275874
