34
Energy = -194.13796724 eV
Co 9.035266051012725 9.966456215418054 11.78659247143568
Co 10.364702742183464 10.373682103277652 7.310738725143667
Co 9.409179618626618 12.05443357317509 8.647426148120665
Co 8.28577889237546 8.424371289750187 9.988093872272591
Co 8.486112252208391 9.63969819030889 13.943318780618801
Co 12.313357752967999 9.732216542268349 8.282064837294081
Co 10.21803169409106 7.924571484228087 11.10488059377366
Co 12.134648606920232 7.527171563497866 12.381110128098976
Co 9.85152642859681 12.04001951886693 11.006176561972648
Co 13.636285948169734 9.166444125703306 12.011119842380502
Co 12.154403381048898 13.14689679324856 11.320012615063769
Co 13.5258348783357 10.582451262068453 10.10529146584193
Co 12.182134039371418 8.522710670226246 10.173106349483907
Co 12.392163698630217 10.17684359133114 13.79454253786129
Co 12.17614634840409 14.83945726426696 13.201857671473505
Co 14.250776756450838 12.734182746012433 10.2960214178117
Co 11.609806547749654 10.421020851873381 11.604324350985737
Co 10.414815885132382 8.12287467088369 8.439650616042437
Co 12.159769423464274 12.53410503972492 13.67949987120628
Co 10.200081495890817 9.997462182246005 9.637767903405031
Co 10.2771068283162 13.593768686236423 12.690784264107823
Co 10.569718875439609 8.874450866490104 13.304125684528474
Co 11.712593857726848 11.845569099587495 9.280321431884518
Co 14.110683969098897 13.695119910652897 12.657560484787512
Co 11.454093918000531 15.447772795823388 11.156133881165012
Co 6.885496077441858 9.219825104067636 11.610791549875188
Co 7.933760673193385 10.78668468011239 9.92614557396083
Co 13.63834349376377 14.99974410075217 10.838125813231704
Co 12.628545322611787 13.98429102415854 9.080840980045014
Co 10.176213951196958 11.316062271788814 13.35267948223522
Co 13.730887387545367 11.473143775409614 12.282162510459015
Co 8.387985551627821 7.827542838189322 12.53911715612018
Co 10.420507826150464 13.897110342680003 9.784103635884302
Co 8.426222524558899 9.517346097405941 8.01587228729802
