33
Energy = -189.10399005 eV
Co 12.080895480581216 8.9358082630291 15.1876855688474
Co 9.220766537985236 10.702744274993673 12.14374490748236
Co 11.599943303902075 10.089239299598495 8.324096214035315
Co 10.273951300964745 7.7834709127647566 14.20105777141761
Co 12.776789583205826 10.824965167543603 13.888928368987989
Co 8.356409832749126 9.01911299818102 13.432177478713177
Co 8.681534443274316 12.977679480892306 12.09691791030383
Co 11.703587436074493 12.505687068919562 8.215283779071752
Co 13.834727802453026 9.978650131227436 11.801752868977166
Co 10.631797234791739 12.3173446101658 13.345939093301126
Co 14.098614994355069 9.496760595622243 9.46259927204648
Co 10.380633217021249 10.085914453980605 14.18685797887189
Co 9.651205320068689 11.601734023863933 8.523102968810246
Co 12.330694698869182 8.499412998910495 13.006317948636662
Co 8.448365856403427 11.583283292022085 14.077968529836077
Co 10.457449317651665 12.141700984940902 10.701962275962089
Co 12.165015765259989 13.79387959380876 10.094370194969677
Co 7.9548323237860075 9.14736072059259 11.045699873581134
Co 12.683672440507593 11.278784202569312 10.0389759782658
Co 14.36423961576437 13.613556978611129 11.112779570832764
Co 6.944043103862229 10.798709792981445 12.3784831103999
Co 8.123422509645767 11.566888697355717 10.293199633910044
Co 14.674903334227807 11.87118622198912 12.747739223568614
Co 11.538829204333174 10.416827515662535 12.014787925617224
Co 10.672580876783611 14.196712733593547 11.818262059920322
Co 10.151705266765843 8.412842935374707 11.969054358340625
Co 13.639828327036394 11.09564778378309 7.812253013675186
Co 12.586393178748336 12.599840836675309 12.142464051499402
Co 12.093695691197231 8.818741260233592 10.396196645864451
Co 10.017918826982251 9.826488847334545 10.007118585304632
Co 9.886469570720289 13.857063828921682 9.394687998772602
Co 14.984539068171228 11.516698972396291 10.376902423350737
Co 14.026737409529142 13.056876548747242 8.890187068742767
