33
Energy = -188.53714598 eV
Co 9.868666877733274 15.064053722077743 7.52310241146251
Co 12.555392125063106 12.87077875026232 8.911819372656389
Co 8.52265984174836 11.912471540765559 9.449422375838434
Co 11.261399330698113 14.807472041367125 9.29233809111643
Co 10.00793984004271 10.300112263085532 10.729852377989523
Co 11.115507642278711 10.829167083519515 8.679094241480701
Co 13.935411911832444 10.162589167529832 12.101606702764286
Co 8.62275075413931 12.867560282930896 11.548144147168035
Co 10.286759647816446 12.889711972502504 7.870889778934458
Co 12.996137454398498 9.766898761678386 14.330691632772655
Co 11.456987412290992 10.139702820364487 12.68802451309393
Co 12.277748190512876 11.351917146205508 10.791729173046644
Co 9.220861482375506 8.918870087026665 12.642192916277308
Co 10.547353687659044 12.777937454596195 10.17143123524803
Co 13.469489229936517 10.717090957209845 8.822044334556836
Co 14.928405762158263 9.599868982142265 10.177788960409101
Co 13.109647113134075 12.094895365216656 12.915379323183439
Co 13.053768965412154 8.095919097649814 12.49383936668163
Co 12.594041467804528 13.691810659788821 11.140222124929075
Co 10.02523391124976 9.823828074782442 14.711500458513514
Co 7.767661715281759 10.548892524988375 11.261117989111865
Co 8.958483298324063 9.879307165482048 8.572822419209045
Co 11.491726794750313 11.57272749581444 14.531383336877772
Co 10.67616602998133 8.498106900827734 9.227235442410922
Co 8.603727292913442 8.462807685485506 10.418270977812721
Co 10.24166431167031 14.688141575947009 11.434177573294896
Co 12.649387316932598 9.118030190381452 10.314633037434998
Co 10.89092337870611 12.686814897089654 12.542692812290062
Co 11.299885601905494 8.122865730163573 13.934324270105531
Co 9.205394684858147 11.1826693636821 12.99506767981698
Co 10.948164990241814 8.029175997358752 11.485905976905443
Co 8.9294022108395 14.274414003767774 9.42756596464657
Co 14.42411346095382 11.964706566882821 10.588989065421387
