39
Energy = -225.86611382 eV
Co 13.656108889566251 11.918107714422982 11.136714888276373
Co 12.453928568688118 11.694241124690084 13.208123403337149
Co 13.195660899065633 9.867653431244769 12.1157392127888
Co 11.507565620267567 12.756443796476498 11.343143759951543
Co 14.40352718208685 8.451438032882578 10.588822789551383
Co 9.29825720838652 13.802909719156034 11.889172977534011
Co 10.184864676976852 11.668515726612837 12.937170544123
Co 13.138667567211575 10.121674894267427 9.694479734354177
Co 10.978633061601222 9.3704258281992 12.887106158837433
Co 12.145044787287201 8.075748518422039 11.091759311885511
Co 12.19181908849038 12.234871310251444 9.194167916382415
Co 11.071226807432986 10.419308865634417 10.818281809222356
Co 10.253580878893041 13.668260924888756 9.604955837630158
Co 13.303414328972947 6.485804469885444 9.850490012673022
Co 9.132240473875166 10.267953409997084 14.26869136700451
Co 13.315981883372158 8.20721224910646 8.363972307966575
Co 11.108942029035145 8.602436383728067 9.033781583398346
Co 7.864953452604954 11.960421011683001 12.729868163612544
Co 8.393352611350144 14.96041072868947 10.07850856345824
Co 8.730834736880336 9.840593929832252 12.118799516063753
Co 12.057623242686107 6.3194704283786 7.8087239755065
Co 9.16545879537633 11.89386309429943 10.673671921286923
Co 7.130638024200434 13.215558568671156 10.884940226476651
Co 11.54152179158002 8.236227420887573 6.652415355857167
Co 9.793125040100522 7.964553829259599 11.156483927135158
Co 11.982557604028125 10.33889269796737 7.6876224041537595
Co 9.067801221257042 9.641851057842414 9.67552295379629
Co 10.090744257830174 11.485969265061136 8.520009172992413
Co 8.134483022642756 12.9742157154777 8.794372360012767
Co 10.926351590145233 6.381628994840393 9.833357099761086
Co 7.056767583364987 10.79507980943932 10.64701959864757
Co 9.767064118288879 7.077284958351566 7.878666526383567
Co 9.6222131432256 9.477674385274987 7.339937662747064
Co 7.345649857848362 8.435739871177304 10.709549498500348
Co 7.6591104827361685 10.71158341132857 8.198760814464666
Co 5.984331447028118 12.107219563320314 9.119074485297247
Co 8.49350335921482 6.565760122542131 9.77649749120116
Co 7.734568048905905 8.272616075103853 8.349632642090212
Co 5.907817495655572 9.52031353886528 9.129926903798015
