38
Energy = -188.92926452 eV
Co 14.201779668495613 13.516666903162461 18.265856740009177
Co 19.87318666935237 16.574355374192006 16.287638864494266
Co 16.146052363448092 15.888726257792765 14.65781750881302
Co 18.056512014691876 14.84917263143144 16.084817545354802
Co 14.336120609996746 16.62000030114679 15.756459703094196
Co 19.918172889061122 19.03285849920157 12.476096240316616
Co 17.325410153179064 20.763095953701434 15.235031829616103
Co 22.921286008918237 14.844556638073492 20.49390955538732
Co 7.213706099851542 21.92608986747265 16.609871367713836
Co 21.269574795312046 20.43725641406543 13.399690490621207
Co 19.886618731363725 15.810217477665088 18.383488979378935
Co 16.450416937670077 20.89143487187449 23.90898701268207
Co 15.180762236998257 11.51626987139345 18.296109418095263
Co 15.467974663015392 14.776594087511626 16.655414242434595
Co 17.89939459399303 19.938128116433482 0.22376985572420485
Co 15.849203813100651 18.198031246149966 14.578393133972671
Co 16.546769413859153 13.50306623723421 14.94949223672912
Co 21.9115856411282 14.764367156327637 18.517502911023325
Co 20.212141764874954 14.140807767152276 16.89622603858444
Co 20.238462028059615 14.995520646840639 14.723937068411729
Co 18.22569879364398 15.229568782493034 13.741946093587911
Co 13.178588838053116 12.43521628731777 19.979250285116002
Co 19.255999387595264 20.940707003004817 13.947009786461654
Co 17.439241026842158 22.341138715819397 16.71927684129845
Co 19.201088257349817 22.570446570668608 15.45698482638755
Co 12.012836027901054 13.97230317785289 18.698166174528485
Co 15.32813799192179 12.667752720360786 20.204642898276642
Co 14.601452991286243 12.644883678689274 16.16163954234581
Co 13.055722212200306 14.576722295996188 16.602783386672236
Co 16.964479035761524 18.91917773595393 16.324992925222663
Co 17.952760296034345 17.174019138281512 15.210962140463408
Co 9.199645009132285 20.41131716006232 19.983691666108594
Co 16.61765822983396 12.902961231755027 17.271237204318354
Co 21.311831615464463 16.270374153682724 20.15289539898288
Co 8.235434425372512 21.127921631296893 18.273242341143163
Co 14.245906130635952 14.458782978077938 14.639728447487292
Co 18.045924097942706 18.975670580774135 13.857569612982122
Co 19.776152219056428 17.20362672146739 13.866243545744897
