37
Energy = -213.97773494 eV
Co 11.91320077408759 10.243318920236359 6.370079231133497
Co 10.340575891076218 11.92036821681182 6.058140700680954
Co 12.095141577721126 12.290398220498208 7.815616447600934
Co 13.058468097893543 11.569451818548632 10.013451607452243
Co 12.711211810085915 9.932367687924904 8.511553101764083
Co 9.69477893514536 12.971282533984452 8.033307598674043
Co 9.536669948522398 9.647863858037168 6.279940411181164
Co 10.925822784416676 12.47617279176893 9.983965295610535
Co 8.17966301667947 11.162298372010126 7.484856698919646
Co 11.036400617377204 8.305308781014535 7.749858006162275
Co 10.454917433928115 10.760694456754191 8.084744525429187
Co 12.604275598395194 7.85411972259113 9.510829440685095
Co 13.03635113110944 9.419369051658373 11.133939678932
Co 9.096598749225558 13.910384128684845 10.078898095007082
Co 11.904738307016288 11.447874430441576 12.011717898692618
Co 7.279121926967745 9.016707697222456 6.987505498543299
Co 10.340269778366165 13.382449282671628 12.019978992134718
Co 10.995848027191276 10.063767427425361 10.215867558758495
Co 10.449601649313758 7.702925034136888 10.176949437062795
Co 12.01313042551503 7.203718756446459 11.771034989919757
Co 7.958732747710052 12.819447699932491 11.696634966508144
Co 11.053518760728773 9.203351382140198 12.391663923505437
Co 8.964137068805039 8.970692699137846 8.59969925393666
Co 9.009469737424572 7.422482237661928 6.713278986355535
Co 8.637460904856498 11.56050897331894 9.809956085425817
Co 6.96798283043476 9.965610831559493 9.297890850614515
Co 9.598495350298206 11.24728626724402 11.964034937040807
Co 8.71728242999167 9.109686128293768 11.01344677532335
Co 9.19013075729725 6.486061481232641 8.764736176747897
Co 10.129647111948781 5.67419354666231 11.090633607528266
Co 9.606177069815075 7.400866796232029 12.530756327202676
Co 7.197706449243274 10.607387820029576 11.711938885767262
Co 7.06814611055299 7.56710987226944 8.762152561460187
Co 8.928625193909298 9.643484561933262 13.418984510761758
Co 6.245430555621238 8.407854694369622 10.781312191993099
Co 8.080421805425852 6.8341984945520045 10.80040302938944
Co 7.360414874216011 8.17950156287487 12.740807954407524
