38
Energy = -219.84330926 eV
Co 14.7708685250151 9.772431955399423 8.458713588874271
Co 14.011131907883 12.032447368190828 8.213055116322714
Co 15.335172982987379 11.404512858420249 10.061370639617772
Co 14.68571247227003 9.27635389993395 10.87126063610218
Co 12.394862422379708 10.49535724144056 7.448235494548911
Co 12.936914466912492 8.398678379823114 8.207993606435586
Co 13.301927910249354 13.028654355418972 10.234085538574435
Co 13.138399109337248 10.616376113393315 9.864215978899669
Co 11.65980616246725 12.301975311141302 8.781010272332358
Co 10.85239701072804 8.644622354416509 7.223948034709715
Co 12.652281070637194 8.177995480048631 10.412789933496423
Co 12.562080204913999 9.603783437875803 12.19778405445362
Co 11.039668369835676 9.652745169192196 9.328694061201196
Co 10.128070485222663 11.098827292409391 7.4705351369127495
Co 13.948990753045038 11.43187860877107 11.96244979143718
Co 10.703673609582534 7.358573887572571 9.179189798663113
Co 10.574059636277356 13.608266986859132 10.395460695608529
Co 10.770118130553271 7.681758834826549 11.664910880831227
Co 9.48590315367847 13.200336714832584 8.319215505090714
Co 10.280036236901887 9.937546111468794 11.723864870824345
Co 11.690534519962059 11.81339180469743 11.31954068957178
Co 11.373128771704435 11.192627420515782 13.49090920605896
Co 7.802908987938591 11.506004679665379 8.463615131842886
Co 9.615527688622677 11.42881632528031 9.877275349261147
Co 10.852342835415188 8.920139651003192 13.748897786153526
Co 8.85684792778012 9.35846670342078 8.21023211253155
Co 8.163872125011505 13.211463066144788 10.41081205996564
Co 8.982791573654673 8.404681298395937 10.322100673661922
Co 9.460052644629497 12.298701936565106 12.13015818451725
Co 8.683912206836068 8.486890089742708 12.80011437034187
Co 7.938339364736678 10.363388244606282 11.367636108710627
Co 9.05989117521087 10.606731058880353 13.693426722529987
Co 6.411190077319699 11.781311284966835 10.282392081866995
Co 6.917036070246608 9.482379052451721 9.450479764858295
Co 7.189388147392783 12.15261647723469 12.573374603771427
Co 6.848438633953421 9.938729117833285 13.434476705076362
Co 6.85662587805324 8.183596228571243 11.366599041942012
Co 5.587670522550783 10.07851156394115 11.556172469515696
