39
Energy = -226.44638763 eV
Co 9.786088597522998 6.685323345692514 5.022129515598363
Co 7.433662871660327 6.594684106277007 3.985772492335069
Co 8.211601994363766 8.991929989892023 4.59208234245602
Co 5.910849244664543 8.462671550738465 5.229154915564034
Co 8.332343620432178 4.986227911123794 5.803355432435627
Co 9.152048918676252 11.03034271161692 6.317116892902052
Co 9.806735160806204 8.682406100011685 6.41608418460265
Co 7.764557331747514 7.239393536234194 6.061567911734186
Co 5.727263298220933 6.117421579625701 5.923866358328839
Co 6.755421292629113 11.02835050762136 5.311357849022646
Co 5.174613328841281 9.930752223504797 7.049038775447354
Co 5.977821075532333 7.79697773155202 7.512289602337685
Co 7.130413204063861 5.576121317478589 7.844420269130858
Co 11.579771055543898 7.118739004668784 6.772664612766045
Co 7.438718038208157 9.492099842198817 6.728166018789431
Co 9.781582103444222 12.093789695283455 8.627283403078051
Co 3.8853421184011547 7.683806657866014 6.843537901046365
Co 10.859260939958924 4.758202400041562 6.444497074355522
Co 9.517183221562766 6.316735247924164 7.3245501745237975
Co 11.126409412019324 10.21007985712111 7.692565175749183
Co 8.27330221575651 7.874085153968147 8.379227182980248
Co 4.862008108553401 6.057779647650689 8.610059068216978
Co 8.975140789031984 10.016847977291055 8.42379407240044
Co 9.088790197903162 4.217704513767823 8.105448381810021
Co 6.523578868228506 9.70213432488899 9.070377139760389
Co 4.531606755990346 8.308574092623354 9.274700057851733
Co 10.624524865104185 8.104834650982045 8.749023609764084
Co 7.365272472868257 11.587321762064839 7.766076051536749
Co 10.998069779499014 5.765781465613208 8.921188119935941
Co 6.572266550724731 7.227934192338673 9.710164818622303
Co 8.775615276611 5.966141247108388 9.730043541611732
Co 6.6048686494655735 4.984829948169435 10.10986544714352
Co 8.069698439527224 11.16898586174867 10.168264171940892
Co 10.387142131317017 9.981408504262603 10.17289758771838
Co 8.357457272116434 8.81104399632839 10.574538757826458
Co 4.991709145382605 6.570810559045748 11.151161774842574
Co 6.035519871916662 8.827703125096015 11.242914923828373
Co 10.145838498813422 7.405071963107424 10.88649845932332
Co 7.6514299432890365 6.810478357869832 11.6377825910804
