36
Energy = -206.40208477 eV
Co 11.357523975753063 12.1596082043201 8.91346664442961
Co 9.097278801109638 9.560539060694225 8.885903946544424
Co 7.101641462132182 10.60145314725913 9.519410589624808
Co 12.201627717830377 13.349886092897378 10.80418654796599
Co 10.710038318894783 9.845241970400998 12.459563177934857
Co 10.189284325024861 11.632845323612537 10.898253950222479
Co 11.333916921415987 12.31893567787014 12.85669565022138
Co 10.568799972631087 10.569342434055255 7.473367883783746
Co 8.613018429615261 9.949308541631698 11.157126814108032
Co 11.958021052738177 14.436794309489594 13.863443105274879
Co 14.72537601161532 10.509930066824667 9.858542133999881
Co 7.950006881306808 12.250885940519787 10.962701054170228
Co 14.634820616270861 10.578837579831895 12.256657471580503
Co 12.107927317223858 12.368322791903172 15.155047205068174
Co 11.066591217256702 15.020417535345441 11.871183455822294
Co 9.043014087496605 11.412587962873406 13.043482655236444
Co 8.939007219599063 11.880771478327496 8.83579255927806
Co 11.335376541993055 8.541211679986839 8.12237489679666
Co 9.356953319665783 13.598158602977387 12.290530534359798
Co 13.54051635520468 14.668075148273042 12.130334987845483
Co 12.690280832174633 10.971696550964134 10.965283779504263
Co 10.977988595969686 9.46598805355306 10.181095480355971
Co 15.094899527332423 8.630743061297446 11.113516972922245
Co 13.696447021570515 12.693359170640903 13.322321429258174
Co 14.483048675038146 12.660062429880886 11.132062122966623
Co 11.644660045955666 8.659216522225902 14.118439421375015
Co 12.962938800308436 8.829315158822329 12.086634036804035
Co 12.777209288328399 10.435019713644982 8.31651539406042
Co 10.549646314673643 10.78239739214534 14.680567937548055
Co 11.536830791017069 14.344248962105809 16.07210842330716
Co 13.179809653544739 8.739770597866787 9.785749137537671
Co 9.963784283729128 13.232839421802217 14.555356428120312
Co 13.768216921078062 14.042095508534532 15.182209620130912
Co 13.660923624368753 12.476071155102892 9.01855701022371
Co 9.94848251772288 13.74078768075883 9.968729022640169
Co 12.763058516785721 10.572201025937227 13.671754473354243
