38
Energy = -220.8131354 eV
Co 11.784592386910653 13.214151185657006 9.94477975680866
Co 8.87964293351432 12.8414347152945 6.966418179846914
Co 11.154991920196231 12.396912920928596 7.62955517156961
Co 12.976343643118478 11.35861586156921 8.99661567435614
Co 9.555299564077082 13.331314684301818 9.119547761940353
Co 11.168221469580667 11.957512535024852 11.955662826495296
Co 9.477811622728595 10.683591506790872 7.450840283102419
Co 7.803410813252946 11.819381870014428 8.823659258886531
Co 7.2388256980139065 10.948696319916984 6.769026220662895
Co 13.42997316715551 12.177247163972291 11.136449068194633
Co 11.697250660181966 9.94018978912467 7.625241715502823
Co 8.874807755920497 12.010799662076185 11.018657782350607
Co 10.667275608158084 11.18743887055763 9.553938727461171
Co 13.322734789574554 8.931215221383113 9.075360921103627
Co 9.365451920421041 12.664549738850596 13.21213857958404
Co 12.463496121899386 10.146491144427353 10.99835229622251
Co 6.395984398652186 9.903281264399348 8.735849493456994
Co 10.088923983577882 14.007271718133996 11.28409105546191
Co 10.117380117637849 8.526421849714499 6.556175216234505
Co 7.973889103417046 8.835619648503094 7.33853028027421
Co 11.029862982480115 8.779154703231042 9.609707432953629
Co 13.487496831567082 6.592562073516039 9.208924670454797
Co 6.809959525599686 10.807346925849455 10.838646163872923
Co 9.460108732637721 7.371097852737589 8.50291297845282
Co 12.704891148517481 7.718995472717566 11.029653443927385
Co 8.625539220399496 9.649604311876773 9.547746660606153
Co 9.952151381063384 9.878030542508208 11.545268672198548
Co 10.304828156441614 10.582674857468893 13.77979231844242
Co 7.280253672073285 7.773374474556918 9.501265285016093
Co 5.516753860154449 8.849110935616295 10.605339730469527
Co 11.232781274772076 6.387570397734525 9.839473985918518
Co 11.830930507054198 7.508001266328163 7.843607265398354
Co 8.167662806762536 10.683249983799415 12.893847959737192
Co 9.387013326532994 7.542981304046116 10.888580810383536
Co 11.662037781164369 8.921357229001435 12.849569825397095
Co 7.562491909772616 8.7722640244671 11.645991529669505
Co 11.000729716919142 6.776666640503684 12.335479340310066
Co 9.382259715819325 8.357879561120503 13.177361884995433
