35
Energy = -200.84088231 eV
Co 13.113951454495867 8.085726345657067 11.60709859356728
Co 12.208969810690922 10.027960532703407 12.482459217427168
Co 10.766086557084193 11.866891338537036 12.992145721023226
Co 13.624782497312394 9.980304894907205 10.25007666233029
Co 14.304001540328294 7.724790736150458 9.76437616251909
Co 11.920705607169305 11.696364204823007 10.902652239573987
Co 8.03460156723868 13.047117409974206 11.661383844853725
Co 10.894128556427741 7.5336525147055635 11.890304481515253
Co 9.926021061123555 9.525124413943812 12.561706092551354
Co 10.259383486414558 13.501628362405757 11.364596527428795
Co 8.539816134032012 11.416944149871759 13.243951087841554
Co 11.948870970082409 7.0690597811505524 9.851979214464716
Co 8.633864910788184 7.5236865104527215 12.262571686019793
Co 11.32741688158469 9.42195025016049 10.370470602409439
Co 9.53273874618101 11.298122883999962 11.034830590801484
Co 12.781862750248665 8.767385344987694 8.44461894447904
Co 12.155971245564874 11.005393536786103 8.651481576224777
Co 9.707540362955882 10.596742273208669 8.646570796367374
Co 7.529467963018104 9.604615573418547 12.253521736390901
Co 8.830771816824711 8.982600481768843 10.388672398566468
Co 10.743801241194408 11.958664322575842 6.928541144923948
Co 11.25805899766774 9.737595281558004 6.82812973723778
Co 10.492892353098886 8.191071236036985 8.421324916176495
Co 9.230290505928847 6.386703997275207 7.879046822789072
Co 9.445312768907472 6.815702062627178 10.104895750739725
Co 6.351244166527248 11.714221787383886 12.596877727681754
Co 10.636588606698288 12.720277748996494 9.165184232156642
Co 9.740865575295093 8.010156385486209 6.2275770693761
Co 7.075788978372017 11.10406868696188 10.5656324487474
Co 8.379181209974426 12.633825145119157 9.359003354790364
Co 8.506711303199271 12.343991904140365 7.110336919986578
Co 7.312794943022604 10.694598392944252 8.23618509415002
Co 8.89367683187381 10.080257225935544 6.5255267674357205
Co 6.597787324980544 9.038127045879978 9.831504388348952
Co 8.164357970341754 8.458110681072023 8.155476578818798
