35
Energy = -200.51268062 eV
Co 14.197733642298681 13.843130200086435 8.214193512127883
Co 14.052188835872322 10.496390136950295 11.389192347747258
Co 8.594838753656811 12.499696515871973 8.543859889020403
Co 12.383762802843238 13.730577043417489 9.779945608322928
Co 11.139362440120303 12.483301345034839 13.610817636562075
Co 11.732942299632269 9.099838243644088 10.218116362423437
Co 10.899220402086186 12.611942520992313 8.402366356897888
Co 11.446665386005469 14.366236731541424 11.84340589073661
Co 10.607632515878251 14.926915671670287 13.909693558873647
Co 12.852563629296386 13.90290381930673 13.948691173071557
Co 11.066313967303437 13.731176221775941 15.729384096456556
Co 10.597803437567174 12.13821661933954 11.255451394201986
Co 9.892823525061935 10.756322439973864 9.320091316678646
Co 8.372318301984192 11.994763290907416 10.814987446080998
Co 13.046456400856757 11.920949036638216 7.801264942502574
Co 13.706711523290796 8.268752273806061 10.893613786858527
Co 13.557184368398945 11.44808594995832 13.701911614301668
Co 13.712673995305925 9.017392956214227 13.119456323634687
Co 12.273048838666544 11.32304723044147 9.919303731796251
Co 10.159469537737325 9.266459358962495 13.689815707053318
Co 14.380361540747378 12.3540150414482 9.92423323811839
Co 9.12120094758016 11.301592893588635 13.022727751281352
Co 13.03610553684981 12.692475407034406 11.86079840772085
Co 11.700159116687024 10.015475804514518 8.042367074418308
Co 9.787440873460344 9.779189187144162 11.406127041767714
Co 13.992554822701317 10.015414323504729 9.070121174039707
Co 9.69949622256682 13.868108633326074 10.070439790033618
Co 9.242809749718736 13.647230829981646 12.484986630749923
Co 15.284022093914531 11.705826802210076 7.921890609479143
Co 12.211464403599246 9.735257027151015 14.68079198096527
Co 9.109360523217573 12.935580857654129 14.770446836153633
Co 11.862589530667883 10.43834310567652 12.376245982446326
Co 11.702550826095772 8.111609254661483 12.35757239837486
Co 10.261773771830892 11.01798651435294 15.236134803096116
Co 12.413010873315327 11.912015783305131 15.612257443705937
