35
Energy = -200.2878673 eV
Co 10.717399315956134 13.920443464493857 11.008152392105561
Co 9.43811594070114 11.962155057133758 10.673314411792427
Co 10.247851556418494 10.638110396163228 13.010206121602144
Co 11.489024941586532 13.55358854730432 13.292027286186645
Co 8.116087791135982 11.2821929748352 13.796555543023619
Co 7.263260669933121 8.036512975660868 8.944226538874016
Co 12.274749827602708 11.360207588344323 13.844418686643666
Co 8.920883008903726 9.055345555072618 7.6021308737548585
Co 13.35507253941821 8.251292949194479 8.535422088773087
Co 10.277836304944595 12.171189582513401 14.723503725858471
Co 12.829073364097567 10.287002051957298 9.82529499178313
Co 10.099537707578316 8.320702540978433 12.026285763500802
Co 11.794000875966647 11.901110907167626 11.682103267700938
Co 10.500092443464084 6.321341740665148 10.795789776747384
Co 8.255266750042514 13.999985704770195 10.747072291440038
Co 8.306206948523338 9.893180228040908 11.964447291546476
Co 10.474304034948055 10.254131220328476 6.284670183581287
Co 7.339589796526887 12.014074217138022 11.702670179376222
Co 7.622287946860347 12.219345504914864 9.238946069802893
Co 12.265847364409645 9.588250112954935 12.208433751520664
Co 9.310560756960161 12.940543083182511 12.773195586622144
Co 12.061783172538355 7.211456057556611 12.448568758855844
Co 14.208121131096336 10.246581548269049 7.87830008017362
Co 9.588823321326824 13.505289652501405 8.882043718195787
Co 9.523050211407249 7.938930359078035 9.518218209069731
Co 12.164367546348833 11.20746880181477 7.578153241518613
Co 12.016856652316974 8.016754826621483 10.383399093453209
Co 7.99105045262543 7.760720892340724 11.174695161838253
Co 12.673572470629692 9.180461954075213 6.516110854487243
Co 9.725589582778621 11.18202454549184 8.316934958602568
Co 10.567908878452986 9.9992871628074 10.47013671083277
Co 11.38375256458476 6.838906866840094 8.536173808871677
Co 11.168807344494834 9.18713065413756 8.250579929536515
Co 8.066607740419476 9.992810920094348 9.695822774888008
Co 11.561866776834748 12.346226883395326 9.438203892490643
