35
Energy = -201.13094292 eV
Co 7.499565930916881 9.19907129196615 9.303643056034677
Co 12.030980694701837 9.054892932269201 10.393526916924142
Co 12.782551793414228 11.078516848946581 11.390802579145937
Co 13.365810377430371 10.839999462744633 13.686763646321632
Co 11.376619733644167 8.092460196353995 8.330665069902526
Co 10.020432309516439 8.331293943061684 11.75290447479466
Co 13.768472145902114 9.017649185483197 12.110786319995054
Co 11.271014280065 11.402975654242065 9.32664963833565
Co 11.975182536051017 11.864034270462703 7.131903876850386
Co 12.557734769670073 13.901891181413488 13.097229891844977
Co 14.535721037160386 12.773384874061202 13.671039021394602
Co 12.717020749353406 9.923005143655484 8.244652717925836
Co 9.43762215396906 11.91146480601982 14.74936332182157
Co 14.079248598697625 13.090784892863908 11.405395147245578
Co 10.353294615699916 10.118720029403912 7.621394766050416
Co 8.778858582111653 11.085590621743785 9.342670146425313
Co 10.166666222559805 14.09196937182397 12.398260856479881
Co 12.537706243434744 12.540917342362608 15.049752331043038
Co 11.156003330982399 11.987495515375548 13.138732231839395
Co 9.830209382929283 12.525735061849113 7.884611300698619
Co 11.794781934965876 13.18532213444078 10.971751583866578
Co 8.744165078417856 12.090822598693455 12.374998748723234
Co 11.619326833347985 9.475441325011639 12.899596662342558
Co 15.04011432601543 11.02394876337184 11.996828140740375
Co 11.32961853055783 10.509965579919562 14.993448024888433
Co 14.282732680456364 9.937664234475262 9.97815648937525
Co 10.699006639158528 13.891804420848702 14.61995986196534
Co 9.61239884943854 12.993299932376937 10.316192849507848
Co 10.290252543199022 10.667871736305644 11.283479214973365
Co 9.689101555998462 8.925846511635713 9.56877480243009
Co 9.36913457775245 10.005549656855194 13.403597399364934
Co 13.532787245203458 12.076074413991575 9.338967911005456
Co 8.135498256345233 9.800558591595728 11.390595808667932
Co 11.766776931308506 13.603134592339059 8.725837811072918
Co 8.440432787024251 13.794779568670485 13.920610076401518
