39
Energy = -226.68151082 eV
Co 10.922271803819195 5.489292197260264 8.807434581681044
Co 12.993840192172213 8.399086801691427 9.932290097826453
Co 12.265876998678017 8.925993875114697 7.655684753192958
Co 10.723153385613529 7.035223237537002 6.945389804742539
Co 13.344019676423963 10.062068030548437 11.505069413119429
Co 12.149531664379554 8.415879654091539 12.826014104271575
Co 11.545496583608408 6.844641463926493 11.134867743248801
Co 11.733795602069891 11.137763955885411 7.068894213767988
Co 12.397386654507189 10.66487726591501 9.403910216710468
Co 10.280429775667463 9.285110889750166 6.265299205658556
Co 8.852567337583345 5.9679042907335775 7.90938164972193
Co 10.921648879773828 7.740295165272324 9.140505543675898
Co 11.111249090868327 9.393092420755833 11.031180573159702
Co 11.942376291344429 10.96093726845982 13.01289321780343
Co 10.31339164380587 9.962797087581107 8.535572319006421
Co 11.323719708589413 12.027489481063773 11.133276730604187
Co 8.703051909005536 8.25701148575299 7.871101073199006
Co 9.380796579839505 11.446571876110086 6.882732585105842
Co 10.614272046180666 12.272067925423691 8.889736440413879
Co 8.832810976600738 7.494118157575402 5.724024719254452
Co 7.9096206035748615 9.774144300502218 6.311343075925143
Co 8.49094475194708 12.958776599020407 8.363977400438355
Co 10.152627837213508 9.686400846889367 13.283092303372795
Co 9.288101843240272 6.298455645976848 10.259211125733058
Co 9.387776307530784 10.926147874979355 10.528384671922892
Co 8.87843673521348 8.627118472496173 10.209137147011196
Co 7.906739006535024 10.59291074821426 8.724011000391124
Co 8.971810316747264 13.170317004604115 10.650513530977136
Co 9.730060670794105 7.685919915307519 12.22638327096262
Co 7.211456065263023 7.144283678164285 9.337144963580508
Co 9.399621850693231 11.814486661005862 12.638662330073226
Co 6.413462305791414 8.900981018484972 7.954553561948268
Co 6.859090141162938 11.783511626292945 7.049178228306458
Co 6.565130367990418 12.80088138330486 9.437611271648485
Co 8.127574646767346 9.619667961823064 12.21411157243537
Co 7.462767369119546 7.3866046146060595 11.637086362078561
Co 6.609838269874117 9.311023450781837 10.326356501045233
Co 7.248227886501814 11.526864262777645 11.143916547317088
Co 5.557158723420441 10.864448758837597 8.854261397715305
