34
Energy = -194.99923218 eV
Co 13.030042194415733 8.934638573856425 10.026822899551783
Co 11.261294340424012 11.596584521782718 15.068618766998675
Co 13.069342767951971 11.288338364148604 9.70779370787121
Co 12.638706071116513 13.834656707893227 9.605059554703756
Co 13.242153988676684 10.46921186291613 11.871753069869085
Co 10.030464796802285 13.15420142072647 9.563748594223295
Co 8.996790735128595 10.138487901424103 11.978697893234829
Co 9.436312275693714 7.803705297589834 12.057727115678187
Co 12.275498709915286 14.202395949696443 7.343328093967354
Co 11.682583595388081 12.140508262510394 8.09789453343431
Co 11.394033415136777 9.723790410727853 8.513197744132345
Co 9.552322815695865 11.221871117113114 8.106681918282957
Co 11.568319527555598 6.672775504404898 11.518040473160717
Co 9.354680917187384 12.583724610816123 11.758293035482096
Co 12.433625674716703 9.777435690531826 14.027499009075378
Co 11.860683469926471 12.599332392081621 11.358471505353977
Co 12.438611187186755 13.76737031393307 14.993889894381821
Co 10.048539237723281 13.532540413367277 7.320738546441498
Co 10.86080118319104 15.150765320447723 8.863502899363032
Co 10.973543476582606 11.028239809137238 12.818197462270986
Co 13.028988717845516 12.182101510606001 13.490258582507069
Co 9.1129178157501 11.63490328469169 13.999622667556142
Co 13.322206131184158 8.160755730845633 12.247145375105749
Co 10.816256569142684 14.606898464062844 11.282220913105101
Co 8.341628433915321 11.33911754105124 10.034235739246121
Co 11.261129256246003 9.014259224324965 11.535511793380424
Co 14.109026027439075 12.767627357909562 11.30062881741595
Co 11.328462643448121 7.772286793121207 13.552210367777457
Co 9.86264926892416 9.396045830525498 14.099488441127033
Co 10.832696485440874 13.340034370074845 13.486504290093885
Co 10.657208612958605 10.946478979941613 10.286717997063548
Co 12.793357667354297 14.362105175581407 12.601437546061877
Co 9.374964290813995 9.061694516939136 9.897395347248654
Co 11.100210450343136 7.618740872796818 9.511865062101508
