36
Energy = -207.35387381 eV
Co 10.186456807686312 8.51563493707413 13.197911534071421
Co 10.232147348909898 11.031953763948833 13.870036036064779
Co 11.967214473502716 7.594401474664058 11.754849643023322
Co 10.464658650281605 13.419340995213874 13.993801977068472
Co 11.63521042596537 9.934865407382878 12.252142205529783
Co 9.833286922030501 8.193481923507218 10.916667482239415
Co 9.157621897395702 10.311862760471676 11.966197127396395
Co 11.900527163173432 12.189270171995819 12.764450839351483
Co 13.777885033681002 9.068072886331299 11.437889653099775
Co 8.662839749001277 12.436033563855933 12.885266397045381
Co 12.953509053772034 5.83121361685746 10.6944499707267
Co 7.656991698399266 8.913581026696498 10.723140201362
Co 6.967962419463722 10.986574361059533 11.812482862903138
Co 13.241512530286904 11.17266199037806 10.824413267542065
Co 11.752067759731002 9.269573188744106 9.950972255360256
Co 13.52270383682929 7.725079030388127 9.643101607511603
Co 10.230324074602295 13.6270505490494 11.69669948090325
Co 11.260228642590642 6.867604744657421 9.558501483521818
Co 12.75792459313634 13.446548316969318 11.103060815833581
Co 8.66874541181203 6.973915411677866 9.415877052151878
Co 10.950882622568928 11.662018257576113 10.588246502169104
Co 8.47582691024106 12.256266041373285 10.533517674844887
Co 9.298009695522554 10.188878931681709 9.539722108117964
Co 11.188945486049619 14.014817621723127 9.547021303658164
Co 6.9364350101366385 10.800283934291635 9.490923429615673
Co 12.298555542498907 8.251023230761042 7.779890177172741
Co 12.530683312763957 12.207730487813246 8.863057704938809
Co 13.617169240102916 10.03457999618784 8.777168724169204
Co 10.02145067010633 8.395762762479908 8.222158182442168
Co 8.934125414381334 14.18789657698728 9.537085713079446
Co 10.014294061945128 12.309807485997242 8.512646587862019
Co 7.701191003650348 8.839607441109289 8.351966337795476
Co 11.3518316243856 10.43360440066466 7.945700920008043
Co 7.7952753343216745 12.404522440275928 8.096116721987167
Co 9.006761399587363 10.482723741216576 7.223727997000529
Co 6.685153577740525 10.581183564163888 7.177341013198598
