37
Energy = -212.9665394 eV
Co 8.622553090460796 8.663546760097336 3.7995195584673476
Co 7.971726634125808 6.2497216989380515 4.118484104751666
Co 10.271144437939007 6.947841426220273 4.518041833935654
Co 6.397448499027833 8.049625588545396 4.948292395400635
Co 10.145472275706576 9.370026135939046 5.622415478361068
Co 8.56662293646211 7.636999546920041 5.782941130114671
Co 7.765801475433124 9.94245236022578 5.751276776127913
Co 9.223916919632169 5.387028291811346 6.1386070471471195
Co 6.794958562518712 5.9782371133552425 6.3103646409227805
Co 5.519012872217821 10.141740515379407 6.721776888392327
Co 10.606459099418982 7.147628181282144 7.018657761579057
Co 4.8201068690253495 7.2249064433660894 6.747771870402562
Co 6.721105444097559 8.244114496816962 7.209954409123228
Co 7.0072864354904025 12.02358398279879 6.79716778068051
Co 9.316887418075599 11.289250762670353 7.22166301683212
Co 9.198393189618939 8.979469057805453 7.669588892845893
Co 8.448993477159343 6.700532400951472 7.877510208237735
Co 7.70768626522347 4.603125247798494 8.379113963584176
Co 11.121246237176317 9.700319275483114 8.397015867004114
Co 7.330690367032818 10.299271285936896 8.199383169160363
Co 10.02216065880231 5.335077812969807 8.791009724992163
Co 6.075611358111443 6.486733048840704 8.702182832478185
Co 5.444836556936593 8.988145032616163 9.055611587282957
Co 10.490549734905507 11.850585920729126 9.09033201181569
Co 5.582417339692487 11.53264327681417 8.830744521428894
Co 10.162103843409778 7.7057260625752315 9.472418554618672
Co 7.662509172941438 8.367752801606748 9.467189746050611
Co 8.183292922515731 12.044836031601243 9.333381997381338
Co 8.179389514830728 6.201019161953987 10.0843871219465
Co 9.319490116057374 10.02084635996651 9.956234523025168
Co 8.718571467013192 4.107961925194643 10.653319162520361
Co 6.391449297786128 4.898860337860151 10.55954067898895
Co 6.906175647864463 10.27040672073195 10.51019439341585
Co 10.094918549291464 6.052811228071699 11.252195916997671
Co 6.265609534022832 7.324285888845072 10.950035411608498
Co 8.726911372365437 8.101115139708519 11.464514534195269
Co 7.880698125410712 5.795980395372404 12.261368205982462
