37
Energy = -214.59375004 eV
Co 6.6370432149584415 12.247922113021573 8.367966340531215
Co 8.570477011598719 13.279498093500731 9.265799789603543
Co 7.658494554399249 11.23235564440672 10.176773045413958
Co 5.881622575757396 9.989306242421028 9.00590140472701
Co 8.547319875163712 12.337548153621945 7.061700862543717
Co 9.757012710986249 12.21371285938154 11.020622543509628
Co 8.835906911961501 10.146242100478911 12.033064329510019
Co 7.033942838371823 10.449204064885338 7.004450272683539
Co 11.009145219286614 13.0295549101002 9.099219610136183
Co 9.638299712888935 11.243158278755127 8.822807139054946
Co 5.516815694261279 8.704077918144844 7.095379890432156
Co 6.559021828492829 7.654829545909138 8.894462435495893
Co 7.023664125312794 8.93710415520768 10.872187541339756
Co 10.946997270395261 11.120012477783883 12.827651086951487
Co 10.896177479233684 11.843873407259764 6.923293916578134
Co 12.146236544762987 11.978602824144575 10.894251910031565
Co 8.139763555711374 9.341593056681727 8.798572114864088
Co 9.969102413377202 9.044825786655199 13.72884474726964
Co 13.258407493484503 10.868697219181461 12.611608953595647
Co 7.697822198459743 6.604225393678668 10.69514103160938
Co 9.30588830217945 8.203738759914701 10.703524458442462
Co 9.380866479166281 10.003847810536058 6.763059140635769
Co 7.745791503917032 8.17593192147461 6.817792678317269
Co 11.908152596935027 8.99115833746021 12.514865926132254
Co 12.011500681287195 10.8162849177528 8.736902906051546
Co 13.123488403215983 9.750536180105263 10.59937181139549
Co 10.557510196833451 8.867504507264838 8.575182814266617
Co 8.136640659934896 7.94232126186851 12.717241420312652
Co 10.819348995734265 10.093065666502953 10.707731342538043
Co 10.084366855632792 5.999642647977691 10.382167340664392
Co 10.370954491659013 7.125233283036751 12.48654215396409
Co 8.92028544302619 7.060001753522136 8.617382580357706
Co 10.085623770312687 7.7450257584936 6.5960539883324145
Co 11.72647000583859 9.60945349030355 6.682557863221525
Co 12.858926167264308 8.545966160076329 8.548175647798793
Co 11.66988951651292 7.781636219112603 10.45525908165424
Co 11.277547108907617 6.6413849162404786 8.406185190645697
