35
Energy = -199.31821415 eV
Co 14.57186414093674 11.112241371608956 8.370973815401014
Co 11.205195196126837 9.904293041732691 9.820999582523935
Co 5.915962515102042 10.86462549581543 11.552212886915521
Co 10.53233258775132 7.626143355577656 9.335838475508412
Co 14.483214781525163 8.21498716700076 10.855110775097213
Co 10.753489483535368 12.967305703457805 13.651552033145487
Co 12.16609980181917 14.501888903797596 12.617915324458787
Co 12.661928845219036 12.24384221503569 12.404583654000763
Co 9.22130450549909 9.872109098397202 13.544544203683504
Co 10.742304660673945 10.944232902907169 12.021708621333918
Co 7.3994866703479945 12.48085470932787 10.917174756049093
Co 11.057945081045716 12.438205203197553 8.961659846799769
Co 12.626113870574997 13.860744278128093 10.458720057195467
Co 8.887907890573366 9.241739019728792 9.387117256349493
Co 9.088834875687473 13.685573970869417 9.607929829218502
Co 13.13421962556044 13.19581128847232 8.239041916157934
Co 8.993465151768918 11.731931148963726 14.890711973969923
Co 12.458314171579786 10.965698643747633 7.704485662517463
Co 8.847796464477454 12.24076759570439 12.603934820937027
Co 12.190320485379312 7.8906076693002305 10.935443810400928
Co 7.089683204320219 11.142603610817897 13.444094567265678
Co 11.159774653879051 10.866043929839988 14.388126740093709
Co 13.069911213953691 11.631396528459076 10.005292452247424
Co 13.678425408977228 8.174162610178445 12.997730306488535
Co 10.01900815332808 10.60920420171157 7.896153627613768
Co 13.333379647795153 10.408864103116592 13.787569799428647
Co 9.928621137442324 8.68622118072209 11.44756428714611
Co 11.496328559826818 8.911267282289158 13.089760517449793
Co 9.290442326714855 11.445929560591106 10.12354438390418
Co 13.37528932964222 9.285075876191438 9.179899231861334
Co 13.081386560583882 9.96703023050038 11.584196271164823
Co 11.501832347693876 8.832081312952713 7.670149876274302
Co 8.026817533323168 10.088589684506937 11.504566468285796
Co 10.53677252728103 13.404987299414874 11.264567756070948
Co 11.210748666347579 14.64879715333946 8.829917290790913
