33
Energy = -187.84291108 eV
Co 7.222512820974085 10.83013534655602 12.293286078188103
Co 8.844590373783781 9.351431323984839 7.866777342870668
Co 10.352029464455281 13.382247715987956 10.165994401699248
Co 10.77260948099794 9.892061167043002 12.054326399880065
Co 11.339053836516001 11.263221679446538 10.233622672674116
Co 14.160644944616287 8.889664478503551 10.867275386914436
Co 13.106872778886622 10.699924129129613 11.77076508507009
Co 10.350565982960513 8.504062441289696 13.829647147401113
Co 11.904321357727293 10.595081346423106 13.94104849071695
Co 9.052816081770887 11.617401249669262 11.261713780210291
Co 11.79693178898765 11.755453574196482 6.620539710266728
Co 10.97735411839189 12.276593990167065 12.447906967845217
Co 13.096344842541292 12.507919649056454 13.229683789973793
Co 7.533691271221048 10.36525058668646 9.96483948730369
Co 12.158429091743681 14.718700788045368 9.645733146180447
Co 9.602850286915938 11.214997610705895 6.661764167637852
Co 9.576827070162786 9.431809104312938 10.066631800136076
Co 11.13887395012001 10.156623978839805 8.152290481016868
Co 10.49886113502355 7.608779376733678 11.362093540553122
Co 12.245171547220254 12.69223751050651 8.623544944837235
Co 12.525505213352936 8.450667153718914 12.548930282192174
Co 10.552576058688285 7.808283913895193 8.836743414553107
Co 13.388706910592363 10.728145133583048 9.34982017286384
Co 13.03993195999356 12.835097941590954 10.847110966596977
Co 10.295393966356437 13.301061039267923 7.677122776970512
Co 8.60946525172073 9.037896055317654 12.179050292117081
Co 12.064228258150653 8.909039406341163 10.119919926218937
Co 11.403618239982181 6.634354575685836 13.237576828486814
Co 7.423689697324954 11.110604582709442 7.7162216868230376
Co 9.297210808348082 10.819568943842544 13.573322027258758
Co 11.718523468569826 14.36000718338829 11.870862669557587
Co 10.299953902421409 10.062173245761977 15.453518101315254
Co 9.288770600282717 11.649042401914576 8.916216471873513
