30
Energy = -169.10441832 eV
Co 6.736588206278253 12.34894055568727 12.106242440286046
Co 10.71990171721661 8.181155759018319 11.776735835021798
Co 11.832781076242343 12.143805183096568 7.403954415390535
Co 10.911968123561637 6.140331034602206 10.260391223825588
Co 9.594429367349193 8.09426709347977 6.095581303463504
Co 8.017460675876782 8.310565732653933 8.125562974484836
Co 8.05605548936104 6.51791850994923 6.6760856559518675
Co 11.450939164089199 8.031315136861094 9.172416393520912
Co 8.296482363511005 11.149350348868179 13.30046334557189
Co 11.297602358412066 10.26564713560467 6.071259339501472
Co 7.675191393124112 6.1553593801468205 8.928835185716721
Co 11.765439484250788 8.075595442292178 6.904655238641606
Co 12.706684749818596 7.501243179762104 11.009059064893103
Co 9.710654798053225 9.494345007040298 10.108387416402577
Co 6.278838714193876 9.841575937352683 8.004197624621206
Co 8.945289135941248 7.331264603368752 10.335993790442814
Co 7.1127244574361645 8.967673414828552 10.169421010135975
Co 8.496980845421204 11.40985236709868 10.978751377302073
Co 6.380143437574704 10.14599987296583 12.198878007853267
Co 12.025087390510782 9.800596148402004 10.565831199042245
Co 10.617798900435051 11.478352290286201 9.334163094886511
Co 8.19632857946215 9.977069024577302 6.431020568604186
Co 10.074965978138325 9.504209262583922 7.818786694517603
Co 9.656167288691606 11.684595113895883 7.116553692013259
Co 8.189635523340385 10.790788552157785 8.706882812964805
Co 6.305149227869238 11.108535860388715 10.080420015408908
Co 8.486908885542128 9.156428587450147 12.080931852164818
Co 9.852610584789055 6.715563741412029 8.136761304693
Co 12.325436168707855 10.084778178666886 8.223686454927515
Co 10.354666377455896 10.582912500678354 12.090594734862774
