34
Energy = -195.80866674 eV
Co 12.989385955047924 8.700597455614922 8.268563680445078
Co 11.657612324940775 11.559682593706185 9.65417586277309
Co 12.279914731219403 9.383508588501867 10.335605273644722
Co 12.332600369725812 10.925164251499881 7.530371891650925
Co 12.289982701486617 7.010529689969086 10.083899024228117
Co 9.563762186298085 10.255459457054556 13.207595927179295
Co 10.669503665187445 12.621806496918326 7.723364776293466
Co 11.133011056074093 7.350420354134218 8.016820865962195
Co 11.251452741365984 8.561683413737457 12.31027706937438
Co 11.694946373934043 8.962200120644463 6.3436426603602065
Co 10.654625283234743 9.620423196290378 8.504026019533201
Co 9.333721861286179 11.591443320628061 9.283624010935265
Co 10.24120776287701 8.03564683021615 10.232798079470616
Co 10.131928527343431 10.771432029040025 6.479769527035596
Co 10.288584252471779 5.783055198562872 9.537699868432352
Co 10.223166071035973 10.319020806432913 11.055100406882998
Co 10.5456742435357 6.376022355190194 11.777927272582994
Co 8.379722309667095 6.616807103505937 10.660043042966798
Co 8.881112028806593 8.322673391836183 12.197755002628666
Co 8.31520083551073 12.156227927097438 7.194154760890414
Co 8.089707027825192 9.304275533708237 10.109261357538644
Co 9.44332520625723 8.420979886512223 6.3777819481581925
Co 8.299982690297972 9.939959433272248 7.852683616427487
Co 8.127254103666514 11.283813404905946 11.4349951112854
Co 7.037663852392032 11.490201884493224 9.212459556046191
Co 6.662299186526054 7.2851499797867305 9.176205969308443
Co 7.249675009879355 9.7786433544125 12.960045736754624
Co 8.020248326681935 10.109041536386059 5.553786516006752
Co 8.777023451174712 7.53872570352458 8.38645929666229
Co 6.587633874761128 8.03864765772256 11.405134832132129
Co 6.289488835538502 10.767558933919915 6.988833566099667
Co 6.023603119349808 10.28994859147682 11.027340519889611
Co 6.996006393400281 8.283704846804046 6.9548077394685786
Co 5.987333520252159 9.413490307931237 8.863046865747263
