37
Energy = -213.94060479 eV
Co 11.00165428459073 7.721981083764358 7.229218278776649
Co 8.776090090621748 8.38577851064271 7.980937568300208
Co 12.452218480508083 9.393754976301905 6.509881625196896
Co 9.790709647313452 6.180878776205572 8.540389070365627
Co 9.57471428123652 9.125920258443438 5.893828040336761
Co 12.310149084877247 6.633844791610684 8.833592370674948
Co 12.660852039871312 8.988298952934437 8.752250234362899
Co 6.865623176396035 9.120271950299516 9.209528967769801
Co 11.416470865564031 11.394973462733711 6.13657197089647
Co 10.58830563523391 8.120300931913548 9.594333279357178
Co 12.431481860532047 11.339050758398182 8.423871924434911
Co 9.106828218835645 11.31115605267035 6.400390316788747
Co 7.406751697593808 9.736273967181758 6.809524726162933
Co 10.938455735440444 6.004037740495694 10.550715768063675
Co 8.238406856648625 7.217640793191047 9.967627196039471
Co 12.512275631738152 7.950861101183304 10.859005087033129
Co 10.572146182057581 9.99237607606588 7.781222619456104
Co 12.851957477045918 10.367244195805025 10.658382932085487
Co 8.428949350926576 10.876757272913872 8.583705622378874
Co 10.392801767323823 12.41363596047302 8.07168323482858
Co 9.656902528134475 7.515386687882689 11.757978255040571
Co 10.694634732969554 10.851171651428444 9.972591983651649
Co 8.861733074290845 9.409591461590496 10.479299747440056
Co 11.01829451638215 9.445517903548536 11.883614997216608
Co 6.973218265243663 8.860072628694049 11.639956559564483
Co 11.655800016742516 11.809214872396808 12.112565620997081
Co 7.206183401921201 11.044128040559919 10.650568581713712
Co 9.068510626733516 12.67667269398421 10.042366329929711
Co 11.447933799945739 13.041213098510136 10.085162838549738
Co 9.26730877297159 11.307240429071546 11.943651513291924
Co 8.835591671213647 9.267406949543146 13.032318982337406
Co 10.555745901205372 10.707457092046377 13.857050785990813
Co 7.159229763687765 10.946407755429345 12.985740253207462
Co 11.13039431229826 12.992528104910889 14.033113780657253
Co 7.635668864232711 13.024812119331536 11.939939009107485
Co 10.024521086792483 13.547112935867624 12.098583155593227
Co 8.90736176911888 12.435554178899409 13.886926664609305
