34
Energy = -194.51277354 eV
Co 10.736166813528625 9.626402505604586 7.396401302029005
Co 9.33640237293825 11.537952052141613 7.553103915885543
Co 11.839255807795656 7.69809907630365 8.645455757610508
Co 8.009472189458249 7.7844713229028155 9.291825588157682
Co 12.046780926932211 7.911669516902116 6.4265704829678265
Co 8.438793393313619 12.34564685377144 9.82924375363968
Co 11.868376026200394 11.669782355399585 7.94874364062876
Co 10.570325478344017 13.525298850348264 10.612356010572325
Co 12.159207847094708 11.74023399993983 11.06629248467292
Co 6.52080225835363 11.375678619730294 10.56896155257987
Co 8.445810599153143 10.115920707642594 11.072439695003137
Co 13.05393377856994 9.635502690467145 7.713776179958631
Co 8.07749381346416 7.767156390407201 13.625002442760968
Co 12.500158391158731 13.382538277484628 9.394811486445306
Co 8.924696999428186 9.87397465503903 13.346499239557833
Co 10.006242728867548 6.486207045779902 9.780680276798645
Co 10.806946789856196 9.87113618511811 11.781758971521754
Co 9.11005999484283 7.814196638333038 11.554369306011624
Co 9.703578661842645 7.46119635477853 7.600289643857964
Co 11.475136819889954 7.73116388662337 11.098626163015885
Co 10.406322521252266 11.206516382909275 9.671731024213605
Co 7.529637541400317 11.679373942832804 12.641495820953647
Co 12.331549234714073 9.667278735375188 9.903364721489986
Co 8.003545830095554 10.160342493517502 8.820843036754269
Co 6.898645222411061 7.31937298304967 11.486494843880083
Co 6.75915545291871 9.420084043638196 12.51548444670064
Co 6.3470842905414475 9.120457379086783 10.172190830983512
Co 10.49534536079457 8.090178972512799 13.32464935368474
Co 9.685675632871261 11.91791312442114 11.93882843460186
Co 13.720436873360642 11.385244986077913 9.268252163520337
Co 10.01028729691463 8.86345368623355 9.579911409408776
Co 8.412560911984427 9.30895843299306 6.822832962453444
Co 10.03494375111045 8.393383099698386 5.508891361281087
Co 10.330225170627042 13.417557803527238 8.370124706125834
