33
Energy = -188.52660007 eV
Co 10.76255882576183 14.812893765125075 11.000186636070982
Co 11.616087023218427 9.982213275435955 8.387080176286236
Co 12.39120531513484 15.409869457336006 12.771053501086692
Co 14.154067821617147 11.676989098436604 12.226592453419446
Co 14.81266511953197 10.669799321702376 8.322456846335617
Co 10.552649720748096 9.838111365993578 12.141397876719424
Co 13.18953217011123 10.110840315215727 6.716809937793502
Co 8.600277212684437 13.438775789142792 12.168441166916395
Co 14.148324024545975 9.962861165171606 10.482447115121987
Co 13.547322972601307 8.773400532328496 8.595287883551268
Co 14.264533801806685 12.37843847616379 9.97470623317277
Co 12.002660651191983 13.580055002628587 9.44765354987165
Co 8.45004662771946 11.003916257000105 11.711780092507633
Co 9.865623012148417 10.33238611994406 9.977949428187047
Co 11.564457094917744 14.75572387019177 14.990625938216164
Co 13.171425141464002 13.390017557009777 13.882278213938084
Co 11.207263373892191 10.117229176673298 14.42727898602887
Co 10.354651042448168 12.536099091313703 11.004405448857394
Co 11.41150958736011 12.407573693272697 15.112632903833264
Co 10.739070691127159 13.882647082310543 13.089526626770615
Co 9.465334470328067 11.188683912437149 15.647369583796268
Co 9.582313937063278 11.805890553626224 13.494854895527407
Co 12.913380258968072 11.888552515440225 8.132151738709371
Co 12.234220658488882 11.223851500436684 10.392537547209999
Co 12.826440301976715 13.530053474634105 11.554373532282016
Co 11.882195455153788 11.710935916597903 12.800955467290285
Co 13.400935403561647 11.032822625331654 14.412686510703006
Co 10.477839999100468 12.068228380569016 8.637136616854814
Co 11.923777680063377 8.892589020872293 10.432142769696592
Co 9.401830373650858 13.587723412557985 14.95262877071622
Co 12.933833104454507 9.661368535950876 12.500176883466906
Co 8.954615016056858 9.635322788972735 13.76692930603322
Co 8.428943906411334 12.340489442625547 9.845441164954055
