34
Energy = -193.92809396 eV
Co 13.28979725443488 11.57048197772605 8.932753253843718
Co 7.42873070768244 9.699600550076603 12.353376920861436
Co 10.064551155645898 9.855026403695009 7.196305794061236
Co 11.18633665412521 14.034448357142141 11.474070667893505
Co 13.423300316265669 9.897116635630427 10.724089938071819
Co 10.142228841318369 11.977863888026247 11.069000311130162
Co 12.58385058094087 12.02591057561108 11.0930668984199
Co 13.296455968427765 13.639940003780344 12.463551438316125
Co 11.621805815949275 6.241168880572018 9.596707788814461
Co 12.604825845194522 9.630905221555043 7.6422062573425285
Co 11.34847617563785 11.653141866801937 7.380286197378366
Co 7.925596289626414 11.653095998075818 11.320195101512525
Co 9.376252192075098 10.76519213789642 13.115787454578216
Co 7.434826852139519 11.85517497233173 13.608830377715558
Co 9.559498070791024 7.203741930103927 10.252058320979861
Co 13.131381120900983 13.91920905687161 9.98863915740565
Co 9.298963532822667 9.491377236691783 10.933714105704897
Co 7.178566483744911 10.145367530414973 9.768277084375134
Co 7.3860940110413855 8.053806817879645 10.67071013916906
Co 14.653350070836384 9.734520772341517 8.730679903863104
Co 11.413300580299083 10.149411344483664 12.11988724996667
Co 13.160252741252654 8.02391526947515 9.260839689591345
Co 11.37065929662653 12.51662634466738 13.271517825696987
Co 10.95497915808548 8.07808056911269 8.432499570737768
Co 9.20858241137306 13.20977667089676 12.798241092558765
Co 8.714540234492532 8.74377798973557 8.718234570942833
Co 7.739073270450924 10.38127762516328 7.448213223026943
Co 11.308149668465308 10.304284499353546 9.48526487564634
Co 11.243120187279558 12.863692968398688 9.269828527119554
Co 11.487365173872071 8.28793259113848 10.81689426089367
Co 11.350525412605782 10.58260516824975 14.429113334662
Co 9.588447641580425 12.195595879157395 14.867410110849637
Co 13.321960202927192 11.15139998582119 13.066431105285224
Co 9.196181501080563 11.227333134695073 8.973152102191357
