31
Energy = -175.90399385 eV
Co 12.249435992997945 8.178776882422818 8.001717930243695
Co 11.678372324020113 15.192081519999638 13.81286753287091
Co 15.201049880691196 13.153996784963734 10.520138262501975
Co 10.68666418278543 9.763312271965264 7.888914494897195
Co 11.82473042261423 9.308151181840044 13.967305048410568
Co 10.930040024579693 11.392998068108339 13.359940684296197
Co 8.873599017819332 12.229464151383866 14.304455870067002
Co 10.886373350453216 13.115061385898711 15.142837098182534
Co 11.906422716725983 13.930848673869297 9.29212907417541
Co 12.929816319299176 12.927388020115538 11.249363629296175
Co 11.375414514566994 11.715442979659034 8.809473382226983
Co 12.82467222495213 8.94274441835356 11.755586671146082
Co 9.077175303685726 9.937054491126055 13.923478226117929
Co 13.647394628602564 12.296042195774946 9.043843773848264
Co 10.485689695659223 12.795607576841581 10.785433650625489
Co 14.77081247510259 12.594577110268064 12.697444476467886
Co 14.251896205436777 10.921563066529322 10.85529080794801
Co 11.62613361964932 14.900107667062736 11.462044404107392
Co 13.256573601455509 10.856330617772416 12.979488179265484
Co 13.760731908530877 14.906894012492167 10.17625690812421
Co 10.40722807554586 10.798855193020469 15.582654136918478
Co 12.998227691314705 9.96929284047987 9.121604140288573
Co 9.73218096391273 10.516672061615276 9.97377927736469
Co 11.226183028802488 8.69909714841691 9.999792844630818
Co 12.588531363685668 11.32630773203901 15.18242748336729
Co 11.78975856471168 10.83805860120589 10.986963866008953
Co 13.724436978931973 14.78150435722211 12.492689457823937
Co 12.633205548199927 13.13393515307778 13.649827556427669
Co 10.225856100794108 13.658432630311548 12.955521206572683
Co 10.404485138554886 9.341298189126716 12.120249930178472
Co 9.052998694996058 11.420830945100946 12.013291197529648
