39
Energy = -225.95918155 eV
Co 9.323783781676795 10.41983526164946 5.579326278924674
Co 8.057500061253306 6.33924550974752 5.3631979694384855
Co 7.59014560631563 8.733618290972887 5.581921652736977
Co 10.091045876949671 7.9814108320891854 6.175277515792782
Co 5.322508924123282 9.515299305481207 6.069604726370505
Co 7.204786552522057 10.951265319625652 6.71073424891655
Co 5.899145766650207 7.05312230406169 6.545465211166698
Co 11.08653097022196 9.92722609937221 7.457688075523511
Co 9.775165371559366 5.742273716418153 7.01902697747967
Co 8.846423335788298 9.402945504860371 7.477678369647265
Co 9.311443201141326 11.695871306360571 7.817763388481229
Co 12.338008284116475 7.9937010089560285 7.961867271362085
Co 8.090257098799983 7.202021360042565 7.419902812618875
Co 6.534631271813164 8.902670320803402 7.830496806793021
Co 7.217848791556079 5.132700222532084 7.255802622425681
Co 7.099899489220374 12.645424665226969 8.532821840047095
Co 10.183193131517829 7.602210157075254 8.565700850073169
Co 5.316371385763067 10.818848904182893 8.461405254745962
Co 4.399875324197885 8.44595586121989 8.078093729667886
Co 10.886639545144856 5.391020179598774 9.084385705591172
Co 8.548253326820227 5.8698914488061416 9.306284418540265
Co 6.330898405854291 11.667966052187285 10.615356463341003
Co 8.001360264967964 8.151878058199884 9.730419786074554
Co 7.5361582941176835 10.539821865776563 9.13166702843084
Co 9.758928761908784 9.984995125935555 9.509243223071577
Co 6.248348941926589 6.80807771071074 8.884644691198384
Co 12.050662139908336 9.630404789462833 9.667376304197058
Co 11.13767056416076 11.80115338223615 9.337337089928376
Co 11.972533617356465 7.100072913478808 10.15317402279214
Co 10.154247231092652 8.250308633235841 11.017617181787289
Co 5.896749476981519 9.185521457206246 10.09183987550998
Co 8.87216194373258 12.09414087046441 10.190002798760993
Co 8.185451112120301 7.4532302230831 11.853029378384663
Co 9.946185840242647 5.975051014466626 11.108646052752936
Co 8.091325630699796 9.94335947755056 11.374100905058636
Co 13.806624565444588 8.316295538662501 10.014243429280228
Co 10.571128338893512 10.649320265137707 11.547222666009779
Co 12.156861410356855 8.951328099220904 11.86357552011624
Co 9.540082527943019 9.111353108760794 12.996894021821758
