36
Energy = -203.39958309 eV
Co 10.312111198428555 11.492995125879446 7.706154507662754
Co 7.314022009919184 9.073701803365335 6.576991741829572
Co 6.009602348963534 8.836896568356883 10.451820114575874
Co 10.539557270268114 12.699797236309072 9.748800773587886
Co 9.774221842998593 7.69344852115119 11.534256935349775
Co 8.588881957275856 11.090779327666167 9.473151718435988
Co 10.948149617405788 13.450603886435895 12.064644630702595
Co 9.136381186648915 9.370613502772384 7.848324337761076
Co 8.265617724503365 8.633223642107728 9.984172731333336
Co 12.720015110993222 12.35616814757353 13.182476054960613
Co 12.30546286080089 9.993088849560323 7.625887116273336
Co 6.778377039420328 9.856224498680694 8.626239978667535
Co 13.662044680304616 8.030463134643416 11.227400013210774
Co 10.715397039084113 11.236846470946793 13.168300913321053
Co 9.38153529579671 14.464568248698859 10.67773357024938
Co 7.158188477624323 10.603789026014601 11.260634141023562
Co 8.026315264778473 11.34225991088918 7.152567473664078
Co 9.076561497407218 7.326815127243247 6.943878652762065
Co 8.688611234215383 12.481234830532726 11.356548749889697
Co 12.096861446868829 11.565961504015576 11.144502378412222
Co 10.881893576835244 10.135345289100576 9.531934552368076
Co 9.569942045624645 7.0022091604321295 9.148498940274957
Co 15.083628859323992 7.275090172631487 9.78004207285088
Co 13.722483013858353 10.338992794844138 12.159354373847982
Co 13.221007317965284 9.81265529437425 9.872812212371132
Co 9.994156143405542 9.097443917033807 13.549088664672794
Co 11.53383811696817 7.865821761453023 10.113706190438135
Co 11.089503082354973 8.132985005045807 7.7879554332338525
Co 9.380079835536629 9.96939910310591 11.515061252520871
Co 9.222566127707246 13.259100412803125 13.489800829807423
Co 13.322124756681498 7.905219907031856 8.60731200582911
Co 8.336211171063512 11.104353394846274 13.25332482244555
Co 11.018322944993463 12.798489427799394 14.747386165567349
Co 12.49811980527921 11.93414160463852 8.855981699282886
Co 8.656103669076858 13.162151959239704 8.601996647800757
Co 11.712331933546448 9.34734893670403 11.971485106941653
