32
Energy = -182.84147953 eV
Co 9.203953660130932 10.395780723484075 5.159249343620494
Co 9.511288843957736 12.172291057649701 6.691509770895616
Co 7.323925257890155 11.077168883544632 6.191981054526116
Co 11.346597595835378 10.66936597049708 7.3554281155537335
Co 7.816472495420519 8.610833603295948 6.40847535517407
Co 10.611499168703071 8.904432559004261 6.052391315253431
Co 10.065456712157935 11.873589390355637 9.034224307019292
Co 7.805612464358404 12.042164947676655 8.395348225258445
Co 9.016373332404795 10.108819690680534 7.54987946276788
Co 12.157851194591158 8.42383360839492 7.89664669801385
Co 6.639895661674247 9.912975208097027 8.06509353893428
Co 12.177594024813436 11.054474043307394 9.662711638178534
Co 10.601411059259494 9.410532635006662 9.208783421926555
Co 7.653221057770304 7.9317155334044545 8.722087142247391
Co 9.76883962678173 7.723870824022762 7.791344022610407
Co 8.142469752027086 10.251893142020371 9.822833314545614
Co 8.613544461361766 12.259802214043292 10.822554885606673
Co 11.088178476354031 12.533488369660379 11.148166243915291
Co 8.98388992523136 6.121530209432098 9.447071127912995
Co 9.103903633674493 8.202082527245578 10.605436161515843
Co 6.754307149922006 8.703023824760075 10.762137279095304
Co 12.67625685300305 8.83319602511305 10.26233816253353
Co 11.126762526544715 7.151358033551103 9.682779472306917
Co 7.605103053823209 6.591220135672423 11.260765009317991
Co 10.186897924014058 10.464918579306994 11.20736077969352
Co 8.178696627339825 10.059466804550908 12.208329640991952
Co 12.300370308251603 10.420572515558181 12.017290825268606
Co 9.605272142022667 11.976153382092688 12.914765987972403
Co 9.882926820616078 6.2069846471131385 11.621729707989854
Co 8.88712563489774 7.953603328678355 12.900537511918545
Co 11.095085330658328 8.315627910760872 11.869322646673844
Co 10.272820696356277 9.797280663849609 13.446950563046219
