38
Energy = -211.2991942 eV
Co 18.09061350683888 10.730386110458367 19.74945259399732
Co 18.130126211390554 10.965320699472358 15.784819771638466
Co 18.638464582161127 17.90095637819253 16.993061066494835
Co 16.33151051321958 12.53085305285733 15.805256394657784
Co 14.932746511337124 19.19082901694228 17.966715683332815
Co 17.20837385843701 14.885201756076496 15.170622457139508
Co 13.847438078937103 16.837425466935937 17.410443515026596
Co 12.752093352591212 13.9515431725472 13.971959931579143
Co 17.139804931348554 17.51364956046754 15.29221428262191
Co 16.316273440741565 17.418869254988135 17.498716227108286
Co 14.533060302619749 20.525898344176685 16.16813138663816
Co 19.59784066675647 11.555482891800814 17.604947337002788
Co 18.526249896720007 13.317782808048825 16.36299465406297
Co 15.328219921228206 16.074718530639917 15.766286208205102
Co 14.644941288854993 14.217023857383092 17.061372203455193
Co 12.425653508217467 17.186791036499894 15.426421672811996
Co 15.757961688062379 19.711254816041663 14.286337811950313
Co 13.505650010396725 16.895791646025252 11.887777523143697
Co 15.547927147316834 15.74613326033512 18.62811539180851
Co 18.710473467344233 20.10807551161572 17.294205965655802
Co 13.477431086419731 18.35188081121338 13.500890849699816
Co 16.70563133898349 19.57499775578288 16.41745236288527
Co 17.35040550067504 19.02641588848693 18.692167907162766
Co 16.771038018087953 13.944579743831515 17.81170238220488
Co 12.902604452494035 14.984524471756297 15.854361097940359
Co 17.93054120937571 15.757909603254369 17.12034916673023
Co 17.339764808846073 11.776024373004677 17.930270667542878
Co 11.731232035848278 16.298329862105838 13.274245052725673
Co 13.897879717971186 12.415370017436903 15.719918563390266
Co 18.268921225293834 9.69477881116968 17.78385047171869
Co 20.155618580726568 10.671789285880033 19.51305261763946
Co 15.610314297564774 17.478803939149476 13.506841364116086
Co 12.81412480857542 18.92552066290517 16.90941892310964
Co 14.025624591721433 15.946670444276064 13.92003726315941
Co 15.007946219434563 12.026400621821004 17.76256636570059
Co 15.043106298008311 14.036155628398848 14.624204296666605
Co 16.05093455236979 10.346195925265382 16.65079273201083
Co 14.578232504222477 18.303079028855297 15.616828951363411
