31
Energy = -175.97682671 eV
Co 13.01001969348548 6.983260499839667 10.96142861531386
Co 10.865123508043313 7.794937540966023 11.637505318426912
Co 12.631074141787206 8.660048451817833 12.885409567375
Co 8.636953509730843 8.453224875071616 11.862661255396242
Co 11.401331571218439 7.554716915185433 9.326009401039792
Co 10.534326685638188 9.833909211590782 12.764788118338632
Co 8.417537033694167 10.676283298344906 11.943475461816892
Co 6.534104199189601 9.460732199625474 12.412044129947736
Co 9.153276454862672 7.743220756688856 9.731063717099014
Co 13.704478488748176 8.102651076096004 8.986556260542827
Co 12.651232150593184 9.227309071749493 10.702430790335926
Co 14.017778394380871 10.37012767015827 9.181052842216564
Co 6.823854276057103 8.494347780737671 10.358649058622929
Co 12.494746990169928 10.962503966073049 12.238258631238066
Co 10.237501481891602 9.774449178167076 10.383640039247657
Co 7.422297470601609 7.60612699210209 8.268160133354012
Co 12.155112888086471 11.457805406073739 9.874100083327434
Co 6.5308268617409775 10.764000544313877 10.470139772832841
Co 10.434135119186237 11.922384047105874 11.585049240215815
Co 8.209797336022154 9.885024067802995 8.926938359602481
Co 11.949944657387782 9.56324438382632 8.310455576374371
Co 5.983302952715578 9.637485981557498 8.387885655572047
Co 12.346289604404909 13.162869206100519 11.346341899052122
Co 9.835484313018384 8.835779878530827 7.689503300476178
Co 8.605579386612073 11.99973151001271 9.986233381322894
Co 10.238387877076898 11.239025804751146 8.438477125579439
Co 7.551005408534982 9.166930094324215 6.672330759550649
Co 6.939510538712771 11.784134424915447 8.292237607147092
Co 10.618549775650674 13.224634726133992 9.633003727312724
Co 8.625475987102256 11.124303222780904 6.867489650446959
Co 8.882112015844543 13.176638839647655 8.019862662751603
