31
Energy = -175.62222752 eV
Co 14.566275557396008 7.937139845114868 13.245124582167493
Co 9.700433269654493 9.834127427260233 12.561361724511414
Co 11.396557409186842 14.998032709459464 10.357937412272008
Co 14.500653012909114 9.872395104771428 12.002341042114423
Co 9.208394939822846 9.271484678061503 10.346775816497392
Co 13.293433381475142 8.026077620602637 11.252806922034857
Co 8.606704064640244 11.77151155690007 10.226240971300735
Co 13.477681826267434 11.893946034392366 13.01663558295672
Co 9.259159933643021 12.112738592920804 12.444397564332382
Co 11.19279116898474 11.63856477180552 13.681624476365807
Co 10.757814085537504 7.956996985799856 11.604111943501506
Co 12.01226315926025 15.748775225534628 13.423741806281475
Co 13.240574236240295 14.410484931842163 11.94410383274742
Co 13.841359557295762 9.675424195806492 9.658893323425742
Co 12.857066939594475 13.411250621541733 9.581432595079983
Co 13.43716694610053 9.8123956130088 14.110617415640373
Co 12.228535302232638 11.21372558804287 8.773987778115558
Co 13.25471601592045 11.567279191898546 10.815960254854938
Co 11.466162560029431 13.030215941908395 11.700927297399879
Co 10.542314077053755 12.883175636283305 9.358049073022736
Co 10.74071147573583 11.03272130008047 10.74482562899016
Co 9.989516205020271 10.632667485508282 8.577800982447243
Co 10.252079310434151 14.092878130643651 13.33896139999709
Co 12.539529121787302 16.601233916706512 11.393335661948583
Co 10.231074077608787 15.996650499598688 12.039063625903815
Co 12.103463542506242 9.832645282458339 12.250423471025336
Co 11.031266743010171 9.475282654130234 14.400206675949827
Co 12.29334329802052 7.79100680253177 13.368578108838939
Co 11.600645946059194 9.08606883895556 9.817783671577226
Co 9.346672243280926 13.987243003441542 11.024986344592893
Co 12.447072028085351 13.566296540279602 14.084748578563792
