35
Energy = -198.66616317 eV
Co 6.321128099867871 12.080028148250596 10.128302940088282
Co 8.427424716416914 11.317030239125465 10.58357768064693
Co 11.864784314254889 11.693947832075123 7.223690389760061
Co 11.23873888422289 9.949014938052926 13.74622072661585
Co 7.40835608481658 10.066737137072797 7.029780022573375
Co 8.728543218045296 8.897615133146381 11.270730627205891
Co 8.665971643081841 12.924066834437477 12.317616033662407
Co 11.864408525294888 6.645871621864914 10.510803396118128
Co 6.927396553787153 11.403422510054796 12.297561478425079
Co 10.421610559751684 12.927295088528362 10.758464013685831
Co 12.646361989831405 10.461698363251816 11.90447546612693
Co 9.538690162560837 10.81405183650489 6.8264975280266755
Co 11.039045211183568 9.748271254754988 8.176584277606846
Co 10.060830149735814 12.019228265511272 8.712816301504425
Co 12.568832770191545 8.87052416940485 10.098969635674427
Co 7.796977137495723 11.882989986208287 8.279401469001435
Co 10.038738540666083 5.791592621845479 9.317130052772404
Co 11.12704222393518 8.4683210385333 11.994590339610703
Co 9.365375096632349 8.362659409605477 13.466280317159589
Co 14.274275032110701 10.423591431077623 10.26478431691554
Co 9.142279434591671 10.580463413186347 12.795032266650974
Co 10.55548953117951 10.362970520176713 10.703814189058708
Co 12.735232541821732 12.707156416031745 11.302547927054697
Co 9.70187268725075 6.732032817281393 11.512037270035776
Co 10.190973101346847 8.033646839557708 9.591001408027434
Co 13.338416964418677 9.718075384056878 8.057532044912756
Co 6.526501086924662 13.632810507857998 11.750541364041288
Co 8.726767486792935 9.724477883123345 8.883544951209664
Co 12.056187693655085 5.334633211154974 8.635741792305415
Co 12.955054440506471 11.811979949691553 13.680049431953758
Co 12.086003814918636 7.597342693247246 8.24100017705282
Co 10.953151038730143 12.054410567643803 12.781260588852922
Co 12.373412575183137 11.333353287356156 9.46757188214825
Co 8.16763814350684 13.529783150934753 10.060726076469676
Co 11.86720469343765 13.493639607739704 9.032040691046312
