36
Energy = -207.35821203 eV
Co 8.000067475965487 11.298150961894713 3.9577319997531775
Co 7.525864105006037 7.799743199533883 5.456296920745679
Co 6.57756467678508 10.052014885860494 5.198644228100224
Co 9.972593500433085 7.39428508154725 4.871653050446397
Co 9.095981480811695 9.669755353716932 5.0552484874909105
Co 8.74183576725892 5.951862256125631 6.486058143140834
Co 8.170812476774683 11.733396450554032 6.1925220625640724
Co 5.601251951558904 8.521558194417752 6.8129197703359425
Co 6.2659740910476005 6.0164788071159325 6.60491895476669
Co 11.511693078165115 8.772594809436706 6.108491636199444
Co 7.748275586752222 9.673816187475031 7.080404290780702
Co 6.062859769028765 11.126965366900071 7.446511934548041
Co 9.513173647507402 8.195905788980486 6.893549831061627
Co 9.836673875978278 4.574917251917947 8.257026012660914
Co 10.077365190300146 10.445310097160796 7.265524594943696
Co 11.132367277906942 6.507788081856359 7.107995632372782
Co 7.3877234571355785 7.487309867537053 7.830615869917377
Co 8.196887773527669 11.453249297212011 8.5867067683632
Co 10.338124125247957 10.878339920490568 9.545569381041702
Co 11.396558797766636 5.876622654122217 9.447148348424555
Co 11.123507958418 8.533799337384014 8.577883363648613
Co 6.26136806803678 11.391483184256506 9.86996222830639
Co 6.304614276048313 9.246325583045193 9.010174683862912
Co 9.466975014973293 6.7854819324726705 8.701353763172575
Co 7.633966761475198 7.469875642792148 10.24124912999835
Co 5.637825503750704 6.807919616263516 9.169164365806628
Co 8.91132179275441 9.176276182479388 9.245029478446899
Co 9.15014236141387 5.396177323735035 10.50336800210563
Co 7.521786294403939 5.29355024038366 8.54061002953299
Co 6.535992420274938 9.442387883604264 11.297406739712882
Co 10.149203628710215 7.558361700322312 10.737525754048681
Co 8.34598216491637 10.912000417937385 10.845236030144028
Co 8.687271791042308 8.882642639558625 11.897194512592138
Co 8.088944806794986 6.639428848179699 12.291917581341492
Co 5.797520017537438 7.246735603573066 11.595828541777692
Co 6.762617892937055 5.32017820860212 10.803246736289974
