31
Energy = -175.97861089 eV
Co 13.253481088137521 9.78466613715236 13.89779818582927
Co 13.576812626286303 12.08494569944511 13.68626116519985
Co 12.540770113024218 12.963029740922904 11.748933259090226
Co 13.22643852992933 10.736424720803898 11.795406863217208
Co 13.175672748656927 13.792502399852664 9.793572097402691
Co 13.569571488783756 8.381289786301465 12.038947312452885
Co 12.81930865057864 11.546652936336324 9.461929992108495
Co 12.157869639648634 9.228597036158598 10.190665478988336
Co 11.426356569274327 11.510586275186116 13.343821447102163
Co 10.925978027755624 13.48466205517119 10.08247050505756
Co 11.598315279205005 7.280934319109029 11.387499404764645
Co 11.773706905543476 9.888987299222773 7.974441506093026
Co 11.469242651446923 9.27999930282236 12.551843398986126
Co 10.998919423834957 11.214060509684002 10.909835676737506
Co 9.500426436999351 8.451025510087522 7.294656464134823
Co 9.28146643372309 10.624166391822767 12.431672340598755
Co 10.712002705374642 7.75304599466867 9.117515307860058
Co 9.896693166228903 12.904006870438486 12.18543595738261
Co 9.715748195731 8.635039264007847 11.142214160176195
Co 9.71597670684154 9.966844801407401 9.135035615318799
Co 10.791964769953179 11.931341480159357 8.445169541750996
Co 8.857572454882291 12.115064223887893 10.212408691629868
Co 7.772269508967725 9.913633191524953 10.660703788669194
Co 9.8228339156789 10.627696585224179 6.735426065662835
Co 9.539267651527794 6.3910992643498465 10.507807386088778
Co 8.259980379805018 7.944527084604865 9.320665798087768
Co 8.464768554235826 12.055268242095327 7.990434209133608
Co 7.6705334317540075 9.868782013875993 7.977994393370425
Co 7.470770593778683 11.92260315766846 11.944979106488107
Co 6.6442055983085835 11.440026457944187 9.456753918314439
Co 6.115957012324175 9.023372506284158 9.322582220524245
