36
Energy = -208.55480455 eV
Co 7.820977759186598 7.231973976872195 12.564659379535035
Co 8.802033518237867 9.479744107156405 12.491191041998116
Co 6.790137883191915 8.929251617937622 11.29312958256372
Co 7.743993335215318 11.123173845111832 10.968672479344814
Co 10.23100635571148 7.589997727804759 12.588240876981008
Co 9.532020039085918 11.764287792193574 12.346930102314236
Co 8.982916870616716 5.695547760902869 11.274787094212062
Co 11.10348251546843 9.940133927939264 12.488166470678957
Co 7.032196766643029 6.7777422552173565 10.293394117049646
Co 11.477591318436543 8.42205629564035 10.81689844763537
Co 5.760829089885975 10.657968799818393 9.814734621246068
Co 7.799417321285333 9.455629966817312 9.204985334345503
Co 5.617410785732825 8.415671610456352 9.302573961218386
Co 9.912137809126667 10.249883722493918 10.4916066920379
Co 10.891198872308962 6.374706600044672 10.213770177960761
Co 9.443418132472203 12.502754730442705 9.946705228775798
Co 9.028463003790291 7.949981632062469 10.652910981509432
Co 11.453674080752084 12.027355561796549 11.057879945180822
Co 11.427506576800155 12.248779782255523 8.641220556338002
Co 6.300311330061711 10.125661319796425 7.522408456115757
Co 12.231489670267102 10.325821626105103 9.784447548430444
Co 9.663908962277787 10.798034795275354 8.12762641906271
Co 11.962714244666559 10.091433840783207 7.557361509297321
Co 10.240482056869777 8.431486429629084 8.459433507252669
Co 12.541940660513582 8.077131690673767 8.79535600113115
Co 7.13858345460498 7.436813699399134 7.937875100692809
Co 9.337027931198781 13.105383336887462 7.654179404935918
Co 8.94033412966773 6.360892468807295 8.830965720677451
Co 8.214716685516024 9.108049523272065 6.851047114215848
Co 7.525808237115721 11.781703034571583 8.635114491953994
Co 11.139070675768343 6.207218092821999 7.941033646372513
Co 10.221135463771406 9.57808691915718 6.057055698140574
Co 10.76606629715091 11.822114521176799 6.3267959947552965
Co 11.719402452626298 7.912045078695244 6.55138402914941
Co 8.218210058747818 11.383555243357925 6.4104485920857615
Co 9.363535054034742 7.138786446934255 6.644099995719923
