34
Energy = -194.2713387 eV
Co 12.760991705528477 10.440826417187251 9.837494246661002
Co 11.615342185428807 9.542433849337847 11.589100172399686
Co 12.1334065257994 12.81241948539086 9.43840142441926
Co 11.578605550647792 11.183978120203234 7.956491662825084
Co 11.500874817669654 13.261330713554425 7.117423235331669
Co 12.62341505784273 8.928069031920186 8.029948875456375
Co 10.560025759794211 11.477732812253524 10.468760064080817
Co 10.673416036390448 9.321103741175975 9.29384511739421
Co 10.232373472088494 10.974160697900015 12.821069210118676
Co 11.848198365518222 7.7969375385810595 5.970748105676384
Co 10.521253958868028 9.413301831287889 6.848535358137468
Co 9.619441712162327 13.003742904812958 11.94712951010884
Co 9.726322408902313 11.6097451931286 6.596949785793648
Co 9.889582586277763 12.806030916891102 8.632998899505083
Co 11.278317597837956 9.207636212886797 13.87465508027111
Co 12.070595075776525 7.7032042875143585 10.190276857744175
Co 11.01653811727354 7.273966096080943 8.054914794348324
Co 8.315849588270073 12.319763254756497 10.259450885149821
Co 9.552696387899703 7.4866899077114075 6.039917492801408
Co 8.774950401276616 10.642108871379305 8.514376636765903
Co 10.508635282344656 7.665417607701497 12.323843833356927
Co 8.275162937479266 9.643913823417126 6.353728206297296
Co 8.014212303406348 11.250432108384656 12.390251709734027
Co 8.980710034597985 9.119666412542816 13.501550794212042
Co 9.720679429518368 7.302390993627526 10.13030734914464
Co 9.129617661688396 9.42905256800135 11.19687927581929
Co 8.764352760811159 8.154081297163334 8.086272906339284
Co 7.0572471308640194 10.445156917374966 10.262430889768147
Co 6.7814445237369565 9.375418738921079 8.240161672359374
Co 8.236995716182244 7.270761413186292 12.08077013480338
Co 6.890731595124218 9.154951286184879 12.204009125110206
Co 7.414756176601446 8.013840300849909 10.018799705948709
Co 5.293055934242512 9.019883649776906 10.243672237266182
Co 5.8491833392760855 7.245523786564079 11.553817677023039
