32
Energy = -183.28063452 eV
Co 12.84002635301494 13.518411200716914 9.518786011175122
Co 10.714221463789567 13.8791966083783 8.627907048066637
Co 10.680331094214338 12.920334754139223 13.128178966510601
Co 9.911444872550232 10.501585539875384 10.594586371218668
Co 12.524424954792886 13.983154771451437 7.218631733276398
Co 10.776662391151472 10.510127007728263 15.182294716169784
Co 11.017845191400887 12.217591954236287 7.005708369338849
Co 9.757935888779897 10.258324797753767 8.274948818197334
Co 11.904733132089788 10.060774708640981 7.3324355331936415
Co 8.786481847493093 12.239165075869616 11.733912149547615
Co 9.420283204867868 8.434555079646186 9.773977133138597
Co 9.111409375848426 12.299154723387165 9.32325045398191
Co 10.837978935867055 13.151345122360096 10.890039839085327
Co 8.730260403407893 8.881853505347602 11.981275950991758
Co 11.726744580461506 9.279862014576187 9.494724725110748
Co 11.942471711522469 11.049893709233078 11.650551322505628
Co 14.112909884893728 11.052222271329645 12.521840558373013
Co 13.71360803015831 11.366652381415106 10.141473579802803
Co 11.492114709447398 11.655352628632816 9.184484020093635
Co 8.623899865199007 9.667834296511847 14.72052027397385
Co 12.260184659412376 9.49032216283504 13.375150652732021
Co 13.357841604831727 9.218917883598506 11.183806948423591
Co 13.000161169548765 13.069304641692625 11.859791250727662
Co 9.000472978011166 12.011173488622967 14.404355230431715
Co 11.032948536769517 8.58225838690626 11.611347413070803
Co 13.288964300587335 11.869293164813362 7.777151664004254
Co 10.037623963396213 10.550244147309897 13.005731420538268
Co 12.380741257214886 11.70570193987094 13.973804349398684
Co 13.864108748831434 9.667981192404463 8.649939039588263
Co 7.587307900393385 10.682181085275054 12.907772003195868
Co 10.251740996739976 8.338310784178942 13.847994161631329
Co 7.669578009934473 10.493715502785916 10.518627394712139
