31
Energy = -175.27799255 eV
Co 12.322279116060022 12.937264102784248 7.422478214459025
Co 10.47879052411801 12.154475771468277 6.2160473873593265
Co 10.11651852507641 13.689541801922408 7.940944793776679
Co 13.433416174649684 11.639211447463488 9.091218094476805
Co 11.595299858266031 10.75818787470631 7.649698984883647
Co 11.316355753607128 12.441884013144007 9.448664753522168
Co 9.388980030786952 11.515940579093858 8.13639187259724
Co 9.676863680786287 9.822497589317667 6.510405384133062
Co 9.05743732638223 12.84751016770482 10.043404943399953
Co 12.656224889610867 11.51875565507979 11.466059809139873
Co 11.958911736305785 10.099752768731072 9.875106568792328
Co 10.066950925566504 9.111133992340985 8.673454991073717
Co 10.348028708213015 11.478067796015818 11.397374487072474
Co 7.84015588709354 9.663275094658351 7.885691540856944
Co 8.3838443123677 10.59312066162099 10.10804920322795
Co 8.597987290004818 7.506099508567427 7.76910197303821
Co 6.1667773849268555 9.927154064910887 9.585608045271535
Co 10.104254040787923 8.999761731400909 11.052645536180036
Co 7.864291634374477 11.88226863392596 11.90531936097899
Co 6.2929084406171905 8.02446880690874 8.253179061760276
Co 6.946513734488903 9.531927644108558 11.718004019237783
Co 11.865844549432053 7.787586497051326 9.909464506523028
Co 11.253280586675116 10.699363805827018 13.318153807554236
Co 7.810391983004227 8.279047231514252 9.945724664628688
Co 9.685149778265918 6.918053257889932 9.808095898428174
Co 8.927156090110039 10.056981164689567 12.739231760065925
Co 12.231217266738051 9.135012434821856 11.997680382703173
Co 8.55386617933106 7.708484481102251 12.150886869486731
Co 10.88690690727649 6.9242050977039105 11.88345054548208
Co 10.470805170401876 8.502503807027686 13.502604478452715
Co 11.338162330199381 5.482033332021707 10.231428876961466
