34
Energy = -194.15258213 eV
Co 11.811345474213315 8.366545701463858 13.589704928145888
Co 10.422687026354925 12.109896127578667 7.39559991098537
Co 9.097255827414441 6.1294141764295285 11.695408689668694
Co 13.35259397233936 9.434599897901341 8.857432853965928
Co 8.820554416122489 10.803241180812904 11.809818725088546
Co 11.066522182105505 9.793558750977427 12.010588129456695
Co 7.066682579979641 9.739089112418984 7.583887001070883
Co 12.229483209381248 10.804529631460793 10.238981321258004
Co 9.929470974640042 10.692603632780795 9.769285480027074
Co 9.087036459384164 10.342105234042052 6.673433913407706
Co 7.42966640667862 7.5207527873884885 8.420327445979344
Co 10.124389768469069 6.781406435877039 13.712544223188512
Co 9.289717475465963 13.788495467087351 8.478875533180641
Co 8.918857038370284 12.797932835197042 10.50252588826593
Co 8.208890903042853 11.617533075922571 8.501072979226198
Co 6.973590364773918 11.577796600239516 10.672143557364345
Co 12.748982946972955 11.739549088968635 8.142389871679207
Co 11.627211464120013 14.103391819724655 7.796574859292168
Co 7.234848192988574 9.16187984872867 12.176096398547804
Co 12.9853113986669 8.745084948966385 11.243201382921741
Co 9.264828988165135 8.510011803918738 11.049320697347797
Co 11.350645358721891 9.926500958465683 7.778582420425554
Co 11.113096063484507 12.824736507522104 9.599177453874072
Co 11.294248751851038 8.535823215059919 9.679159456443367
Co 9.337051313987713 8.929453093150292 13.37938720859226
Co 9.261776420092954 8.85070401946469 8.363768367238828
Co 7.806991406128661 7.175976886002218 13.213140607961817
Co 10.824502816124191 12.069611516683677 11.804066828497866
Co 7.537106444910273 9.581295305679717 9.826425627844003
Co 12.26439037458477 12.6657907420892 6.149655374131778
Co 11.20086690283272 7.277768090858202 11.686407788957982
Co 7.347123092428589 7.30757955674028 10.696294716553556
Co 9.479174274246743 6.827805272530829 9.503557833859368
Co 11.115453940002103 10.691712504681206 5.676192138294681
