43
Energy = -251.49395049 eV
Co 11.352759388039036 8.357420673435424 14.689687543485487
Co 13.071917801157788 8.976826707201642 13.285124969578636
Co 12.893200153524521 6.744520805360621 12.400010432511372
Co 10.803913771925451 10.250806025586426 13.630693013230344
Co 9.080982885375883 8.597386724125673 13.631519831094277
Co 13.226315493993964 8.422035457263263 10.948777527520736
Co 10.827417215924761 6.049514321947107 11.423929414937486
Co 11.080405091016686 8.114737866780862 12.454021353795328
Co 12.099246185704342 10.401639213443675 11.597911165052778
Co 8.44510925881281 10.860656138233436 13.21296545118117
Co 12.327234231535556 6.561283882602536 9.803069738401856
Co 7.370561176427278 9.32920088207324 11.764319801393276
Co 10.969513124380267 8.444965962338427 10.039811016268692
Co 8.952781096511613 7.504849159566879 11.4847473420175
Co 13.738784055279481 10.517753256351677 10.01187713678374
Co 9.622716876134282 9.77251012880367 11.571835453858842
Co 12.909032247635464 8.73200212902766 8.665279148740497
Co 9.763578590120117 6.5817991105474505 9.373571615547524
Co 10.412847579089936 12.063359511159243 12.082433994561534
Co 8.565613535993796 8.768364705605965 9.551313204123758
Co 10.56365048778862 10.908591674785722 9.82918609899428
Co 12.202009441383897 12.418126165394767 10.235824101801553
Co 8.34461535820457 13.129128507639578 12.642860282592945
Co 6.524998643248317 11.628437386659888 12.033937628367482
Co 8.40349293854336 11.773958455491522 10.733824695899237
Co 11.310360257025984 7.277973078498445 7.717243787349384
Co 12.387283806133041 9.286745775589115 6.453085286302699
Co 10.50148751097824 9.432842435179937 7.893487878666076
Co 7.065999025344999 9.236330070130549 7.77307690400848
Co 12.354379800871882 11.009970845767345 8.239747978459432
Co 8.685450732630496 10.906114898973392 8.412489715547188
Co 8.930699031805654 7.698027056300737 7.460195371546251
Co 6.331674809040607 12.65086182986603 9.913964324784008
Co 6.727026321876575 10.360069789644523 9.782099369510073
Co 10.047167833509251 13.3910576698006 10.167268105339852
Co 10.40504259016761 8.416479169008523 5.720110169122437
Co 7.914251557726045 14.18956958620385 10.717923421343414
Co 10.520424090082496 12.519681523819777 8.047497268640486
Co 10.839152786004176 11.048193306895579 6.266529183522998
Co 6.660030926402042 11.64484178605146 7.684965234796397
Co 8.736379336983688 9.9139684957703 6.302347193328813
Co 8.214502551291826 13.185907730439993 8.610579103831663
Co 8.75451604896079 12.284320023374505 6.461863313043058
