49
Energy = -289.65109762 eV
Co 14.195155109114381 10.271090993058644 11.272934896459816
Co 12.976007776821215 9.82140641282055 9.344199102896354
Co 13.88226724937158 12.031227834210474 9.680267185320801
Co 13.380464127624515 8.075261568667013 10.994309523011026
Co 12.693608991156518 11.389443709703361 7.560470080932829
Co 13.216009253936072 7.405608492260561 8.738202687790704
Co 12.746071983665576 13.568532224686427 8.29051456013145
Co 12.747423879504183 12.010826157142482 11.78444252699492
Co 13.04778778062274 9.812643741381171 13.261461949868226
Co 12.332069902107692 5.895738463287618 10.32728732046829
Co 11.737403884953988 9.839398225373964 11.398905141721315
Co 11.86499494470322 9.142056435175162 7.4819849749523115
Co 12.156762960023233 13.929253115277415 10.550424842765574
Co 11.595306789346477 7.466467930760979 12.225473587814
Co 11.567217718873987 11.825791818148243 9.698481351793195
Co 11.279446783375995 6.8854667306241755 7.529103183253755
Co 11.217975431440196 13.054266126869848 6.55284991648941
Co 10.26688516785502 5.6594441010686785 9.188942481444501
Co 11.227569316987482 13.583394985467438 12.721546505041143
Co 11.069315624864112 11.368599837605815 13.290638970178126
Co 10.903781303072215 9.079370880771489 13.645775153819535
Co 9.634033042989868 11.020998945201832 11.36091981714672
Co 9.558534229576695 8.68252741581846 11.42807640254115
Co 10.473423394398855 13.77297205549496 8.616269177908551
Co 9.042956793339336 7.715913077447387 13.43107024162753
Co 9.152649235821153 11.88558439500117 9.120588118538315
Co 10.341889891126616 9.852740168295979 9.299027848600296
Co 11.197511503261994 7.80471912577448 9.779418523085713
Co 9.904253731061372 6.298691003616463 11.357692966146777
Co 8.7860620382205 12.947017505002554 7.135893218328433
Co 9.574433897194547 8.639231738189359 7.473506639311093
Co 8.87195223976447 10.221505186336923 13.514062179809667
Co 10.370183318166752 11.04980457071369 7.2456367893551175
Co 8.929818924696157 6.448939899076674 7.373056849215064
Co 9.866243013812822 13.40904803259142 10.898386710665466
Co 6.912442989589907 11.455259572231219 12.97390233582672
Co 7.9639846181779435 9.836840430742296 9.622865695095845
Co 8.710465414843819 7.435340463418508 9.514427168244461
Co 8.995426091821761 12.559015851646047 12.986446831975886
Co 8.079724950718399 10.508644856065231 7.353061557153402
Co 7.374636730850634 9.424232946814948 11.972495018558243
Co 8.151357365630458 13.982570017541292 9.24516982137553
Co 7.703223924529454 7.115726749273757 11.64333281485887
Co 5.98742266514166 10.69714599052968 10.648129415868764
Co 6.87542384188835 11.99703367982713 8.759724835414083
Co 7.63601886521623 12.371925382434348 10.992738378543446
Co 7.288100560102225 8.233774655677857 7.860620468455429
Co 6.3690052774075445 8.252081755924179 10.087016349103214
Co 5.814596263086941 9.934725536807207 8.43754867595532
