45
Energy = -263.15154082 eV
Co 6.043250641030947 4.233146184472691 8.760463902772917
Co 11.966534037878974 5.077801568829377 9.30939040188305
Co 7.951735293746871 5.182843098094154 9.824832764960082
Co 7.004148889755782 11.25975205565725 7.672655890944774
Co 3.6270912265809865 9.566100840374244 6.217256282896766
Co 9.683547967152474 4.267259978443796 8.268637754007498
Co 10.090036471228366 4.820459462558129 10.712190794252944
Co 7.232520795258143 8.712308824390202 10.819547101657475
Co 10.062057662312705 8.646565781762515 10.287453692067386
Co 6.4384092498643435 10.84321449762427 10.022080467045017
Co 8.40861890933014 12.188402004151314 9.525410725776068
Co 9.253045251148976 6.971103571529672 6.747452572867542
Co 4.914366834616203 8.14735796613377 10.2065869750732
Co 12.059957138569034 7.485846140710173 8.586787750773544
Co 8.138316634141242 7.567331708068787 8.89327421519069
Co 9.343991712251427 11.16677780003184 7.342066594076244
Co 4.70230926091215 10.616497863249124 7.996187953441909
Co 7.6611464630087545 5.1910759271440226 7.452839874339391
Co 9.489971484661595 7.560460750343814 4.533726273870351
Co 10.433096952058838 10.886729955714912 9.545729575847924
Co 8.407341777514214 9.938178143517073 9.102493481923911
Co 9.477673041053219 4.772093016091162 5.980740393051398
Co 8.888010565702478 9.662032622299364 3.6083847994140408
Co 6.554650388466787 6.580289996743873 11.295818424512031
Co 10.029312901223578 9.651368323632418 5.549503951750018
Co 7.689985176193267 10.765466083665528 5.30711531723818
Co 7.595305056550168 6.068695318145934 5.151702180166299
Co 5.098867448250745 5.657100110004668 7.051699496457755
Co 6.234881815564647 9.017325174748008 8.588706021419894
Co 6.0604864808869445 6.479326923516863 9.066674927314102
Co 8.795639599460632 10.507470248073538 11.271552820465416
Co 8.179538582417154 9.143078920280734 6.8694356932580485
Co 4.417229763988736 7.912909653658953 7.58083866401595
Co 8.866942258645633 6.852473000760388 11.200991563808314
Co 10.065527364751741 6.43106311254838 9.03717680841533
Co 7.306899838833565 8.374382949905796 4.696814809915955
Co 11.402817303430703 7.826442778392693 6.225244122750423
Co 3.8252930793380377 6.20062775438862 8.964645370348183
Co 5.420968883329012 11.677092135995132 6.056484850380466
Co 5.860959314185778 9.468815165434416 6.170844122376286
Co 11.429075175122163 6.844724434934818 10.842051923685343
Co 10.337286610731002 8.945238116610785 7.920525074239241
Co 6.743435209379819 7.292584617927427 6.858839535412422
Co 5.091194811769065 7.4177596522107665 5.2787696847789185
Co 11.271595375567426 5.677496465093254 7.153445097022129
