43
Energy = -342.10578361 eV
Co 12.916930617365903 10.981366406928075 7.376587202750845
Co 15.046787026133607 12.294081380545824 8.737701587962285
Co 8.852262434099071 13.283442688135958 9.420828470492701
Co 12.803277485815974 13.259883882467006 7.865178277789614
Co 12.385840735148863 15.551927727148563 9.447981024344854
Co 10.762371431076042 11.516318579200675 8.413705146024641
Co 11.525619616268933 9.321302830448568 9.122374995787986
Co 10.536996652328984 13.94346414965416 8.021921583691523
Co 11.559050527178568 13.304763274906838 10.189741843262727
Co 15.236106984282452 11.548388837385993 11.052023672489854
Co 14.67492476477045 9.628200178428317 9.667804038515445
Co 8.9670018107637 10.798582071630282 9.599913115348343
Co 11.051120984855256 10.830632418038402 11.10764441948052
Co 13.041248929005699 11.344822959786846 9.762395826367404
Co 14.039506864270981 13.70962098586568 10.03963615683577
Co 9.650219977251988 12.668999867420554 11.502233990197057
Co 9.922095826808661 8.522530566232184 10.527762149773972
Co 15.133021859279374 13.96786688240356 12.085516984641226
Co 7.327674036983098 11.850410944252637 11.307983392094172
Co 10.134386835958308 15.240763782897863 11.097491906245764
Co 12.928390070825063 8.936716827492024 11.117174231383949
Co 9.00424116983434 10.012749738219414 12.172362412768372
Co 12.724865518328077 10.68772098842464 12.89208299573886
Co 12.919390578100776 12.678949798209189 12.02322340290193
Co 7.653085087435231 14.368126700475262 11.481173017329654
Co 10.830610554504162 9.024935130371297 13.056329580433932
Co 11.68040676395861 7.068253822957517 11.996747817327883
Co 14.98471267722682 9.542986443642745 12.467378852159499
Co 14.95369288412773 11.952386169796616 13.610521311051325
Co 11.31410965265478 14.164802041960577 13.082353267935215
Co 12.881314027102661 15.310217566359263 11.660309616960072
Co 13.381674703772386 8.302619384809521 13.777561103976318
Co 10.462341899566129 11.641932396003066 13.478590482300085
Co 9.046600536724403 14.07714664348377 13.5411670436568
Co 8.0173212487099 12.108355722631718 13.672035637045315
Co 9.510254099726453 9.84486006472564 14.885274094833408
Co 10.326294938544994 12.713543617603273 15.435773979412675
Co 14.859539248516052 12.89794431074958 15.736731285177875
Co 14.055553620044106 14.42832046763692 13.71410929239129
Co 14.113959993573683 10.332922387066336 15.036412052884197
Co 12.649704643409374 12.64322051328483 14.72992164925295
Co 11.797280636903402 10.136231527121343 15.276445153732434
Co 12.446330399911629 11.665807676344775 16.918016288397553
