45
Energy = -263.49016563 eV
Co 14.760978336175494 11.062582584063493 11.780120331782355
Co 13.5828498148026 10.609260289707736 13.818219007749953
Co 13.450518620142468 12.37897166022146 10.019310722278082
Co 12.601276377769423 10.203995244710018 15.869478534713071
Co 13.952199488213987 10.101109691132658 9.866126104650576
Co 12.921849624411005 12.312566723616788 12.270576174706324
Co 11.93594420078246 12.093684866742812 14.641272451657468
Co 13.408161401121946 11.070524429039676 7.82468679739666
Co 13.15937153857851 9.245501219199278 11.969822301137867
Co 12.065774678340578 8.77913934642982 14.034956107044689
Co 10.989771368097895 12.875146622016663 10.938435232182908
Co 11.779354800098226 10.678750381197917 10.558141430713217
Co 12.30931244677116 8.318936578673686 9.93704303126575
Co 11.390960856858872 10.671963730557206 12.918925478868177
Co 10.4676472699584 10.235901108556114 14.997264277913866
Co 11.48291344370961 7.566091343370637 11.956352971881829
Co 11.232647965423984 13.754191680634198 13.061694573123829
Co 11.638689906695753 12.277141752894059 8.624231994182926
Co 13.602558761862442 8.688846855693871 7.997318401937224
Co 9.617466988798789 12.189691344439503 13.905796836981247
Co 12.618614073614832 9.593166013068227 6.139403903484714
Co 9.200985438390546 14.507248469652424 13.678359680988871
Co 11.186585498929967 11.387823899479345 6.493330038936253
Co 11.411801540067197 9.769198498547352 8.22502439746833
Co 8.355693739467508 10.167617452012118 13.964900849030245
Co 9.883147419244834 14.85363539380474 11.372665656824653
Co 9.36078047424932 11.03866583061297 11.825223195949262
Co 11.610075821538366 7.440032118945994 7.8255229843694565
Co 9.868694941727657 8.8424303891481 12.937683442724495
Co 10.524105900207562 6.798300927219436 9.824990895795981
Co 10.010352968157697 8.958768038135767 10.549182805862538
Co 10.780684834845495 14.365566736708214 9.159854332340972
Co 8.414441266474016 13.196079494845161 12.026732127975267
Co 10.471953009185397 8.806870772843913 6.239686171517581
Co 7.055085134885738 11.495656576970626 12.757561085386268
Co 9.64108172895059 11.23690888308018 9.42721573081639
Co 9.644841094230312 12.839334224050374 7.5888354751087785
Co 7.78372728573283 9.374439005781232 11.586612925550854
Co 9.452243177507277 8.220635247443417 8.288354137309842
Co 8.779941601685517 13.422463575533017 9.730272312592
Co 8.20183197189818 7.522235028485108 10.120426041021842
Co 7.4290861328156 11.534754024394875 10.491816798482041
Co 9.181133267667752 10.445495814824035 7.288315177687002
Co 7.844354974370639 9.643364984682263 9.196727701440956
Co 7.552585047046623 11.88001066097722 8.221220520856365
