48
Energy = -283.52615496 eV
Co 13.764858148451204 8.365687288151717 10.09037529219752
Co 14.60716890858037 10.425111669904638 9.212258965209795
Co 13.639311548738224 10.376769217590398 11.320333460225026
Co 12.43229773922193 6.89742372317682 8.754962952662451
Co 11.855300108811209 6.651918435077348 10.9872588170294
Co 12.313171276250603 8.56573606856295 12.196368027688726
Co 14.320014394946636 12.56786466853212 10.46239691043191
Co 10.71457647414798 7.223191303195499 13.275434656085965
Co 12.899437181937184 9.35813987973895 8.077567928815844
Co 11.46111668458603 8.677767421467097 9.863514431959118
Co 12.575862086614332 11.524439179258247 9.45494205966076
Co 9.752470083410184 5.878507700709579 11.678214800169615
Co 9.889555838102753 6.886680216010397 9.562682466879174
Co 12.434356553176904 12.46960739919255 11.780461323684749
Co 11.459248046890536 9.841092816973006 6.136652347922141
Co 10.837984184113875 10.507961661224932 8.279282238411009
Co 10.741098387204142 8.128460055451358 7.644380688852695
Co 12.518391955705221 11.668667101193227 7.1416962854846275
Co 9.527608410637434 8.313852547781856 11.529963965449047
Co 12.168020686746669 13.799648483670085 9.842448938524795
Co 8.891253357095083 5.92181949055004 13.84751852603845
Co 11.233108958522584 10.417950173935868 11.296578696834016
Co 10.418693444572234 9.635990649636076 13.386840415912749
Co 12.48692070310011 10.729365562950388 13.356430338486916
Co 8.583840915756983 8.24258205682029 13.737425741443644
Co 10.735644674392015 14.15653916016331 11.70821774958433
Co 9.136243338197897 9.18007873428191 9.290554779723251
Co 10.718342497676963 13.004576720154223 8.171856445955264
Co 7.678066486775962 6.85443484367223 12.085789894664163
Co 10.424739952578408 11.946394841659666 12.957643080074192
Co 8.42284796030789 7.522793828004561 7.769748261290956
Co 9.987644207401965 11.741196563918965 6.410182491957722
Co 10.274838412761751 12.349239429278116 10.334901795468037
Co 8.652211296493459 11.30346571520525 8.456111963602586
Co 8.346834082888222 10.755078562350288 13.51554654008062
Co 9.131550528600272 9.567899461204654 6.714126134845447
Co 8.835280697884016 10.764833369959529 11.23228480314448
Co 7.445646666707462 7.8660926012255254 10.002678252364197
Co 9.421532058816577 14.385899917132225 9.695671943348591
Co 7.274013056181397 9.194746319635733 12.041514105379594
Co 7.113935731501368 9.498767638133636 7.851925495549108
Co 8.42924222195748 13.458828579195176 7.7610118140477145
Co 8.642292575568854 13.046303905740434 12.128412814498214
Co 7.612322105962231 11.420229425635302 6.369387967730786
Co 7.762191124004074 12.728812511496315 10.008738022001003
Co 6.7416442520021285 11.634664064270083 11.9529265101251
Co 6.910654697135077 10.313664669259765 9.96341422766589
Co 6.375264381847656 11.89418245212256 8.274897229227095
