48
Energy = -281.89414345 eV
Co 7.782737222199264 8.941835396757511 4.455463706036704
Co 9.966308609671195 9.634705393441365 4.953764466393164
Co 10.49528632309708 12.002720131922544 5.587873529497188
Co 8.597328573648761 8.308765005468418 6.4684178359550115
Co 8.228552187230736 11.086245866566925 5.568066227367268
Co 12.023024755628438 10.376150167887628 6.356195166753746
Co 6.426662772751557 7.244058396194765 6.33552640832033
Co 6.46600465924013 9.597869141948774 6.180424552706277
Co 8.426070882635097 5.984694478493031 6.318702313637543
Co 4.459407672130842 8.472042472204755 6.225621759088236
Co 10.840699629211546 8.11231050266608 6.950290571875995
Co 9.798757983805285 10.408527516951612 7.088093669389127
Co 8.953496406585337 12.538389628329824 7.505615132221288
Co 11.327759451047381 11.996727897707174 7.952824245625209
Co 7.0010816943046015 8.376609249691846 8.397445900780264
Co 13.374139825889092 11.066153701978669 8.598234743930059
Co 6.932407311443495 5.927039368993667 8.202871179226436
Co 8.699192574811637 4.373075220473695 8.124415800783302
Co 7.458113764669515 10.80448934223522 7.970473655676576
Co 11.605584537096897 9.656908590736359 8.526459239282898
Co 4.912928177137306 7.454285377804555 8.292966074069575
Co 5.121788603937662 9.80556269787912 8.02784818654592
Co 9.235325965385321 6.626608419214556 8.35923467069681
Co 9.339869875160886 8.913134127470338 8.759495778027977
Co 14.08589040529894 10.758862811078156 10.83951108678823
Co 13.15053042569902 8.915574867726079 9.945857609508206
Co 11.35719638731334 7.351792365024377 9.169869268497054
Co 7.750148494812968 12.46012800580478 9.655890860789754
Co 10.598590386405412 5.1146819700378 9.431318210888135
Co 6.199133025296638 6.723759849860519 10.261127938442435
Co 11.812214580521122 11.115407417591776 10.4867107213439
Co 9.693123812340689 11.187167512436593 9.462252268289296
Co 10.52651333956583 9.062759356338189 10.800203518563043
Co 5.7542199988817915 11.280678169597508 9.750953919468943
Co 7.648245690582269 10.03196770704565 10.191957976955642
Co 8.235268383137845 7.758047139712304 10.47422839679507
Co 10.620594245248505 10.623140425428588 12.593072778388262
Co 5.41543787928869 8.999546384902963 10.197852280954804
Co 12.535251266922353 9.457387801165835 12.10221505177099
Co 8.241437495438488 5.409667139356719 10.195512780429615
Co 10.150335369161674 6.59301192773019 11.133495029772442
Co 8.712443390288586 11.568417573453726 11.627941662498133
Co 12.32190002220903 7.236620113230785 11.380475811178915
Co 6.513320181293891 8.389443502157159 12.075003792720661
Co 10.548012409783649 8.10783918038883 12.932193339138024
Co 6.488750779636003 10.753168170715742 12.014380089206348
Co 8.649498498214417 9.31606326441332 12.340682988687757
Co 8.390186715002992 6.946731892848154 12.601740446101417
