46
Energy = -269.99805087 eV
Co 9.006993845634142 10.603119514791306 4.135898950400414
Co 6.945135795510485 7.046026802985391 4.938905031268771
Co 6.538653398061684 11.166015581631612 4.5694660829752065
Co 9.697327843597023 8.263666026881763 4.708165515386781
Co 5.317369083030663 9.249242293791392 5.220853729531233
Co 10.373760314304008 10.461034504523672 5.9291736387245235
Co 7.6398695393300065 9.227630485671858 5.230381358737384
Co 8.117523171943667 11.435942731740525 6.2584967488793115
Co 9.32514606123348 5.7796351998548285 5.4881546712021505
Co 11.369172393132091 6.632342174498068 5.080084356214123
Co 5.202630893940861 6.984693230646879 6.418869146841307
Co 11.131864914468489 5.999482244483104 7.409702024733616
Co 7.167060057431316 5.219627786162477 6.421463822164184
Co 5.7803539859159905 11.02099599790534 6.81606051677358
Co 9.030702764668325 5.406524184251439 7.920511399301028
Co 10.870518855637876 8.166059925335754 6.688622797364206
Co 4.049645316312862 9.237296798432382 7.199137651438832
Co 6.393048291488392 8.814876847810059 7.237768937642183
Co 9.814027867082403 11.689451123929922 8.072421562322068
Co 8.851591214473624 9.569487589343831 7.3497847026442695
Co 8.416235825053267 7.412456050706724 6.701693662439643
Co 4.789651562814102 7.634171723409087 8.745921999413879
Co 11.215633515919462 9.779949380465263 8.287746149748907
Co 4.891454210492324 5.301032776319906 8.16680670622417
Co 12.14783408893245 7.608085776575445 8.816481455711845
Co 5.835763955825123 8.320668339109655 10.812732678730866
Co 6.775257253530185 6.587909135864048 8.166728534135766
Co 9.757890501388887 7.739656355072524 8.754393130808184
Co 9.289798995448388 10.016450430265143 9.655106272129157
Co 7.4877843252785565 8.567474475397491 9.236330482356312
Co 11.11431181816129 11.227162079720307 10.230348918397507
Co 5.8374997801578745 5.9384447772144675 10.25858696930981
Co 8.21918333855352 6.3325717644163175 10.038268627058905
Co 7.439305222614923 11.080500909318244 8.57846427752034
Co 10.988978233124014 8.668050587224588 10.583788531093232
Co 7.129558326697597 4.415646303441092 8.98020175270683
Co 8.870325319148783 12.176342664952983 10.279643176850144
Co 5.4458374262402005 9.968084731690462 9.09014398116492
Co 10.699461338558782 6.054938674457466 9.943143143900084
Co 9.30889131469762 4.213272682471825 10.012112365586626
Co 7.529353128375854 4.663303330612133 11.44217853701973
Co 8.726714987589746 8.35532650275671 11.329821121382745
Co 7.1048464057178915 6.875187067316496 12.102706567755183
Co 9.551579571956966 10.526080064200112 11.87115744343544
Co 7.265555056271103 10.269115894044592 10.916718464297286
Co 9.544966260427886 6.301033848478917 11.910919776450582
