41
Energy = -236.07113645 eV
Co 14.96748886527959 10.176843667098852 8.912472007998389
Co 12.766529214027669 9.396695241429482 8.754997716975387
Co 10.95599522749094 10.829784727008908 9.297972975907452
Co 13.305769414596359 11.729074384600272 9.030269881062349
Co 11.323991007579632 13.06330258994767 9.762718111547652
Co 15.001154475906473 11.4391543759527 10.884118620109643
Co 9.580528099626566 9.153423365234536 9.984231816986803
Co 13.040979461623321 7.396587888099409 9.734592601678125
Co 9.190963041402696 12.500503018677156 10.705989548452212
Co 14.059129379983933 9.127455548650707 10.768193740953318
Co 11.64919870980557 8.838658462809564 10.819245098762968
Co 10.114595170919731 10.605033374750727 11.583151200861622
Co 12.459551191148172 11.043832845984484 11.071984862558075
Co 12.03617280944082 15.065179426878483 11.049905806113717
Co 13.464409087708807 13.279268506156674 10.778905398962953
Co 15.28553302939343 13.636969186343414 12.186866221029346
Co 9.792569118316898 14.75495961379816 10.94111729304555
Co 11.332737364627157 17.021012183440206 11.698545318525436
Co 15.255751483821683 9.785814296214884 12.582115404469752
Co 14.165548505195924 15.603202029204063 11.573313824204815
Co 11.07118579027886 13.040986922971877 12.084372562447113
Co 15.006123057624302 15.504975929141517 13.661593573610519
Co 12.975582435764311 9.506817250201822 12.913692221263679
Co 12.754786860565089 16.41199519997963 13.395549349965282
Co 13.01677841286675 14.101119098861021 13.228515491399202
Co 16.21573971540877 11.754966273889107 13.119163117324485
Co 9.076883278999027 11.512670241438878 13.3198549011705
Co 10.69349627749119 15.258975639296144 13.108904690602012
Co 8.80244895916244 13.739223355638087 12.753724991907147
Co 11.432302109868028 11.116281559979672 13.50643885657843
Co 13.72779285042226 11.814524665349667 12.847566752010534
Co 14.890973784366887 13.113886546635706 14.506094218827544
Co 10.360828635445108 11.147852799856697 15.567425705227578
Co 12.369813951254269 9.942479401088546 15.211497003004231
Co 13.718923970955823 14.923556205276265 15.412868827934712
Co 12.516522690017906 16.872793762667577 15.565515688513925
Co 10.361508917146963 13.114381272887805 14.395588145960991
Co 11.45534845221323 14.899464020126864 15.300180112889429
Co 12.692658403220586 12.466657596142806 15.093605576248603
Co 14.441249867347233 10.777287367913 14.733352274520238
Co 11.165599789296813 13.02749302598817 16.648931356000165
