46
Energy = -270.442785 eV
Co 9.705861891798135 5.917244974501587 9.770700024901567
Co 13.175689522629005 8.206152028220922 7.78490061044513
Co 9.331758428934974 7.782055132671997 8.044828944685493
Co 11.537806467346867 6.531316112204843 11.257298873036019
Co 7.9043255934622705 7.379467875714974 9.881625535420813
Co 10.812692493704843 8.772732127901104 6.5515454169426555
Co 10.072845234081356 8.115323770869162 10.37012236160685
Co 6.983943846006587 8.439974807453048 8.060690810850902
Co 11.432237520904133 6.9705766817196775 8.651289508061204
Co 12.596341212500969 10.235304983415624 6.852194235919095
Co 7.885001647820044 8.07252126761398 12.048364421559075
Co 14.082890762899137 9.899004328745015 11.451449333593356
Co 12.861736620077089 8.04165768412647 10.227216961609319
Co 12.79009283717157 10.892670875996439 13.094158263030245
Co 11.304075482854604 9.392211983852311 8.73918283169874
Co 8.537746345027404 9.626178867658364 6.748116183627365
Co 8.872106142783045 9.883748414127552 9.058795428987695
Co 6.988502486839468 9.535039255935946 10.355480965787871
Co 10.21004267869906 7.896279018750364 12.641666344564863
Co 8.52339268843279 9.209325088269718 13.924268289601919
Co 12.585418909713832 8.344804004991627 12.62288888424693
Co 13.44992097428973 10.122389826326549 9.243994532822708
Co 10.321675993790233 11.038762874541565 7.30816132601028
Co 12.263491184956585 11.947458109299836 8.38749107795181
Co 12.87421756525717 11.960624856526211 10.750397416926798
Co 11.719504202668423 9.866175882492806 11.132519053855576
Co 7.048248287568376 10.435141440056341 12.49719145952791
Co 10.736307697975079 11.862432958926698 12.13575565067965
Co 10.428323335377032 11.473203059809633 9.815117030388818
Co 14.536338113387158 12.159279172760384 12.341331337735244
Co 10.790757089923533 9.878974280171706 13.575932194220764
Co 11.128939869737607 12.085651492931113 14.499312435427841
Co 6.782566154502583 10.760020940734572 8.329239702180006
Co 8.258020873447158 11.992790154175351 7.012765554130147
Co 9.175061312652925 10.012580962746878 11.635694633003093
Co 11.972687751381129 13.896259881991481 9.635698450947112
Co 9.003275928504742 11.487836171054665 13.718910367487249
Co 12.398423564895651 13.28691873390837 12.917175281516363
Co 9.961870574183221 13.65130520412726 10.694726178292505
Co 13.725646292846365 14.10372143563478 11.196461741741196
Co 10.182226380939149 13.21824581969107 8.243013005754246
Co 6.3648407403517835 11.724799119988415 10.541581501317077
Co 10.000986073634541 13.76013469453162 13.122810130056994
Co 8.255942386957935 12.332799560270368 9.288746059049767
Co 8.316885930245896 12.289756028985682 11.667336329062218
Co 11.595854456017213 14.995669602755145 11.658374868916766
