45
Energy = -264.06926792 eV
Co 11.94002007045531 12.432610388086562 13.499598743952827
Co 12.30382492000385 10.507717229746325 12.256089716826628
Co 11.101694177556892 10.318173767842021 14.304591360208603
Co 13.290459355879392 10.244491768161344 10.067195010050343
Co 9.867629662755688 12.324672811264257 14.636521884732586
Co 12.65925776406785 8.229180442526 11.961682032672355
Co 13.06597135041015 12.46645561698395 11.082758722439575
Co 11.066650170416883 13.499260136590998 11.686554728868549
Co 13.634570343945644 7.996253879326197 9.78382976629689
Co 8.952993480141632 13.54499060201859 12.771177653534538
Co 11.208532501203129 11.357133877553762 10.339185578550476
Co 9.982568733957235 11.456340475963252 12.5153481628212
Co 10.377595112685725 9.024799845803809 12.435722164577019
Co 12.141720723682726 6.353433525431005 10.096373409638375
Co 8.881989135235143 9.708632169596992 14.052252297955945
Co 13.733038444715909 9.444489650677784 7.817536106360851
Co 12.832087200241872 12.043427974621546 8.619396123880357
Co 10.533650670333843 6.867499584762244 11.562433728862226
Co 7.8229808644545455 11.669381053927165 13.597656425555618
Co 11.287647955292627 8.796741782716381 10.204079306428754
Co 11.10486283502685 13.472364331442082 9.298115535454373
Co 9.100069798469718 12.962531184764929 10.51505900571894
Co 12.5777330264724 11.203505028276526 6.384147549825566
Co 8.486199839176892 7.585989595439212 12.851116528481949
Co 7.226619758776701 11.777814488027106 11.368206051151812
Co 11.585038481001028 10.12587972506068 8.22476569427437
Co 8.375784994776547 6.013198655079502 10.702862618077448
Co 12.008810010773752 7.773335813112574 8.112742447766609
Co 10.974887577167317 12.707535805647698 6.978509104226077
Co 8.840615208360644 8.257841973966583 10.687945997632262
Co 10.00713220438474 6.89128315422167 9.135358079402442
Co 9.657763177923297 11.588867371610927 8.496161685666978
Co 9.006837655726379 13.819969913063575 8.271338072798768
Co 7.466527580362919 9.608262462310593 12.178397980885334
Co 11.988748267811376 8.974773991955994 6.154230644783131
Co 9.370784662720178 9.154585357765557 8.488833500653426
Co 9.02278961729859 10.561005836933445 10.547889738341857
Co 10.057509998194119 10.326344382908198 6.484274809656318
Co 6.674256017999193 7.647205236167022 11.079214982883906
Co 10.026612429665818 7.8029847873104945 6.838772633221497
Co 7.452960012993055 12.041194507109982 9.047111516327583
Co 7.71590027266325 7.484607432317813 8.818193602714416
Co 8.67259241156925 12.284560824599001 6.502667941398275
Co 7.0411226769710815 9.655369704033967 9.73628533211784
Co 7.700034050515901 10.35121633801789 7.519694149405327
