43
Energy = -250.09814746 eV
Co 12.97128071295038 11.950954261060838 13.706961191002158
Co 12.461481777941838 10.022048414468053 12.513873781155814
Co 11.36669829855934 13.720351989733828 12.991244265156705
Co 12.466613087514576 12.310252076113029 11.525934712415326
Co 10.775616560692317 11.477049176969441 13.325141253960192
Co 12.994490602191012 10.462055854476755 10.092326425056754
Co 13.706001862442939 8.421562378886865 11.215792150159434
Co 12.880730648970538 8.440797214050642 8.813302124037929
Co 10.056003057151177 9.178895593647614 12.602527235767472
Co 11.83823444775556 7.621567429596326 12.623262020938443
Co 14.359655003595313 6.955399699939714 9.60638531061018
Co 8.512276213342652 10.943888698955247 12.79239004374593
Co 9.284829521786683 13.041210737365125 12.269666050826679
Co 12.268948161526698 6.647964663348747 10.490939798031368
Co 10.770777099762833 13.671484453087336 10.635719257681657
Co 9.446647758395471 7.041740326576122 13.349383498388134
Co 11.448021697555568 8.861008926947203 10.68575494245951
Co 11.966283891779536 12.246262323802151 9.114006448248034
Co 6.353863016164163 10.692255845198313 13.402804641207853
Co 12.800461996898719 10.471992366454892 7.562848940472023
Co 10.484823761420415 11.16501555755548 10.952205972103343
Co 10.723299280601102 10.17136633653661 8.640056718309472
Co 9.985379649313641 6.969707869046878 11.176363948264568
Co 9.64781226890421 12.464144703510101 8.873964549886335
Co 9.06902444369051 9.078249426648359 10.206494746967154
Co 7.761600832228091 7.5479570496220685 11.585105004032268
Co 11.408017389000115 8.633789457221937 6.9203544452190355
Co 8.259994601506627 13.759919172905398 10.31906094503238
Co 11.037987038507476 11.961577944182551 6.97522209850469
Co 10.668160732691891 7.53737621249941 8.921138869167123
Co 7.881123760552584 8.814183434255725 13.47286652798063
Co 11.778954080657265 10.416043841945578 5.435646421199587
Co 8.945035736460989 8.333959051689865 7.690977657913599
Co 6.968913679866179 12.50567023687504 11.919306305818537
Co 7.217973850804856 12.584542249444034 8.654318622487057
Co 8.304533862565025 6.900724696859971 9.420286092908079
Co 6.883899219718154 9.718841563015618 11.443701883671034
Co 6.961475701155371 8.80066603199472 9.289222155696402
Co 8.14208469142891 11.340608237724968 10.381524896680812
Co 8.664014559412074 12.279717428087094 6.784629789764453
Co 9.65905753079535 10.095973395031269 6.345277681913961
Co 9.843501683434662 11.765825015220907 4.864223108164182
Co 8.209895954358974 10.46088557464573 8.231220197887383
