49
Energy = -285.09395059 eV
Co 12.506670804601576 11.632293521709139 8.062834237325413
Co 12.876719379483452 13.984785797302049 8.160283113576297
Co 14.532083737066564 12.217751784131533 9.023948432701044
Co 10.664973961172707 13.996740815219454 9.694567339196594
Co 16.081142454654476 13.650402311468536 10.139345199271668
Co 10.796284328490616 11.329093726155605 9.700221519626128
Co 13.96288880371263 14.857746899158201 10.024931533629251
Co 13.058370591628204 10.589402656850996 10.246023012699563
Co 12.553397362735561 12.847604112589465 10.063359980843874
Co 15.318666227104735 14.661820851175504 12.06938837562305
Co 16.47187880069879 11.389307683895638 10.411745116760745
Co 14.53299402399493 12.222593334061592 11.34909147164518
Co 11.61858580965806 15.79626569121914 11.040151117560912
Co 11.75310592598936 9.33176194518061 11.803519530427893
Co 9.271554328036261 12.404452043545072 11.074620852344141
Co 13.197095487592447 16.96073364634907 9.964635429414427
Co 11.539556126552025 11.644952446589087 11.850807897516786
Co 17.463080100391863 15.040511581676387 12.700994858849697
Co 12.987711918368182 14.014774190494187 12.043858891625472
Co 16.765151029977005 12.796575418625928 12.294930615259004
Co 9.644649380847987 10.34698607601742 12.15033121276289
Co 9.746790193408874 15.801274104879097 12.723507933844852
Co 10.603972416790231 13.93459928946939 12.038706698758391
Co 15.819006317188993 10.679500066304936 12.623815030349542
Co 13.734969237266732 16.337026861894685 12.147366245739294
Co 11.995461595718629 12.875804186987159 13.793901872454514
Co 15.695389502114498 16.34673910184145 13.779621286284772
Co 11.818489675863127 15.561224670554147 13.553073611208223
Co 16.5374837361109 11.870906599027984 14.715281519421126
Co 13.98721121739677 14.902607522095282 14.057899089361575
Co 14.531963724033437 12.534476763677944 13.691295545062776
Co 11.27747063168896 10.508233435036027 13.930735871714733
Co 13.483585253441898 10.51253720876619 12.795460340282677
Co 9.679073169521837 12.292369991951322 13.550811327677811
Co 16.231536384794342 14.148470482266882 14.366424241207902
Co 13.053476630836164 11.369393639418849 15.189354186298464
Co 14.934944601592944 10.267724069083753 14.71202764761644
Co 12.606804044033993 13.997635460097245 15.663490391587972
Co 10.306769034243038 14.273512658552969 14.73481348124944
Co 9.324808033586145 10.63320256134314 15.00987769694744
Co 14.761015025885587 15.17862184446141 16.15469757068112
Co 14.787509451152928 12.897697120666145 16.083270774159402
Co 13.065004255805903 11.590280640242078 17.380372906556744
Co 15.27319498148002 10.876043359548163 16.867961946535235
Co 10.855975510764862 12.09789402780225 15.934510838022861
Co 10.90759371623454 14.314284152215924 17.08878450172833
Co 12.760294834513644 15.873368448291059 17.022808422800754
Co 13.104462256609581 13.821757373898809 17.907467419169738
Co 11.131309611966174 12.398383453012041 18.225197491419305
