47
Energy = -371.93754411 eV
Co 11.049203887320877 8.185613730218815 6.736418311285893
Co 10.094669877321042 10.605751473156701 6.0156959414381195
Co 12.298644944582056 8.226776614890785 8.951306710378455
Co 9.792579500580432 12.799161934534258 5.466490433065089
Co 8.058918209264302 11.6500615757441 6.909795054063982
Co 10.25921094466667 7.220893335815431 9.088173806274213
Co 14.576529968716713 7.556103575483331 10.18084534804024
Co 11.750832934848306 12.520957372507908 6.773921463159216
Co 11.961318133705737 10.362924680325017 7.730256221908089
Co 9.139994117666127 9.300357058982078 7.7526451623317145
Co 7.289612056839125 10.539692587531395 8.484249869210561
Co 8.175467120046301 8.564250083700239 10.083958664832409
Co 7.973798481207441 12.976012052112958 9.191095841900419
Co 11.917775771436 6.749177375282973 10.680498932090615
Co 9.526024980318963 13.91369772432513 7.293288759781845
Co 13.413396182091693 12.443382962838228 8.265388279530185
Co 14.07019556368114 10.103508643683574 9.404524735197985
Co 8.325412142933535 9.38139412051028 12.401192196806416
Co 10.525884919281948 9.616351998106 9.787205481724241
Co 6.245265326868731 9.540061066509326 10.745000116035634
Co 10.171532687299162 7.959328264566243 11.539628948952698
Co 9.97507550072278 11.627752290496796 8.523576286931602
Co 6.026641009296569 12.00534203256027 10.2691740709895
Co 12.596325334860614 9.082303947612976 11.158224151105877
Co 9.092842598695109 7.6373867896024805 13.86374263099208
Co 11.668874182358781 13.709315936069126 8.84995903725402
Co 6.663859438816582 11.467360744601578 12.37558453458999
Co 11.333734708607482 6.185192756594057 12.85777595886193
Co 12.137728526031651 11.389024904188137 10.1508364157703
Co 7.90759174501367 13.490238821832934 11.622707422183067
Co 8.547290322063477 10.92027316521894 10.710178219397681
Co 13.572482568939696 7.337133693658148 12.422749390219028
Co 9.642210438651903 14.878075461977136 9.87894799539258
Co 14.817203175643415 9.759071457402834 11.5380462754011
Co 9.751256465782568 9.794472360881981 14.441431421120123
Co 10.543248973538546 10.471406289231862 12.216500638255159
Co 10.267977584163187 12.802636378927103 10.855280538564918
Co 14.50790606969496 12.087279987593815 10.39700281503164
Co 11.609209371510456 8.60585464698501 13.464192537171337
Co 13.770228233822966 9.417764953729241 13.565177495312026
Co 7.56737350715242 10.582934345224393 14.527472217199051
Co 8.984411146045893 12.08664849556545 13.13513099331191
Co 12.55397465841898 13.755426204728165 11.119666368417047
Co 13.04991432646736 11.399222207805343 12.224592986548044
Co 9.959105865145721 12.148023579041784 15.284860408197472
Co 11.133520723235051 12.879261560244663 13.018215007853145
Co 12.03902991904163 10.983813694371038 14.447181756169776
