48
Energy = -282.24075708 eV
Co 6.921411119979141 4.142665142073482 8.689509050905315
Co 6.676474286010013 4.686822712580849 6.201298048307551
Co 8.740248482294568 5.5575375800252855 9.355346515889742
Co 4.6970201080491645 6.509786170348463 11.492526589676222
Co 11.684751994133439 10.550750994532091 6.649810692292022
Co 8.644520544736835 5.938479583606797 4.861831106942095
Co 10.835789614103945 6.092703398057002 8.37775988034824
Co 12.317617312155381 10.15485660355829 8.910304107807345
Co 6.683836482541258 10.065104343304965 9.637174089033353
Co 4.973938308961797 8.56797822240139 10.316298908758778
Co 4.684557061768323 6.795106557263386 6.6330611355600215
Co 12.026467080152917 12.47110941026993 7.6724151562198735
Co 8.56333621057198 6.643948566918729 11.525866981347418
Co 6.599822191624665 5.67063233059003 10.50499056767197
Co 8.5611317367041 11.404662274190342 10.213562576999866
Co 5.798764406476616 10.800302502030792 7.259526798140975
Co 9.579948453283597 9.548910810954414 6.6737799811242
Co 10.572219789796966 7.973227253747033 11.99909575876572
Co 5.718247420894072 9.031731967355805 5.58217197832738
Co 6.664947666804921 6.307359200302647 7.934884931202632
Co 9.904966502591705 10.117319394872727 4.49715809235204
Co 6.760778236467439 6.945144954669112 5.728145100673995
Co 8.02402741289855 11.351614035963795 7.751024863059805
Co 10.164068470784983 7.729715944080018 3.820590316267793
Co 12.080503082541084 7.954070817139192 10.057546425188832
Co 5.116340859411602 8.606211926752602 7.969846416968901
Co 8.412768842895218 8.359616150136818 5.046245543617519
Co 6.404028579517858 12.258262167576346 9.125563617492908
Co 11.570905600643 8.66087933429425 5.392570387173771
Co 9.83008954262795 7.652584330341401 9.851580233723919
Co 4.6930680065648245 6.527199784674967 9.19301825698992
Co 8.490187295673534 9.175462830057759 11.26493346235273
Co 7.668594161938972 10.586930722883583 5.554960570131191
Co 11.198244721373344 8.392995304153969 7.898806232426969
Co 6.585898954406501 7.8155583054249576 11.841074611216943
Co 7.282901395011262 7.782242512636636 9.6277418225716
Co 8.790726858715368 5.0710089720831215 7.0503451812527365
Co 4.834950556409085 4.332007363356342 9.934644265832334
Co 8.925395229242053 9.519901286122625 8.919646656505336
Co 10.341182381298136 11.382328392923664 8.606818346830192
Co 4.848138882411135 4.696657947887697 7.683646833434088
Co 8.84443270903664 7.327195020840917 7.655507612961135
Co 4.5185929888136025 10.641834412085831 9.196855929948761
Co 10.739129015709112 5.815806805510369 10.827983699406055
Co 9.81735109939037 11.866093460407495 6.270487340732866
Co 10.679973109961205 9.840524091459617 10.51749827229781
Co 7.257624937267228 8.922569371164625 7.261511027437728
Co 10.362751436008349 6.847259877042375 6.055705166483733
