45
Energy = -263.57646845 eV
Co 9.143800769472756 10.192088032799715 6.683190373623968
Co 8.286756104026884 9.557357778771213 9.148769838273072
Co 10.274655149125744 9.920686879828152 13.698473230492525
Co 7.192377271077311 8.78556700697575 7.296545365977027
Co 13.520577730092107 11.167117859831109 7.44735459246405
Co 13.304895601475792 12.163761561707751 9.762515440973488
Co 7.9904873148427145 13.382582496351326 8.553491485697938
Co 9.438252362687255 10.617374764855672 11.27330737137238
Co 10.26689778348411 6.3527004648400816 9.212649523607435
Co 12.655540286318898 9.052779126729103 7.11364865209246
Co 9.476475338686116 11.61351933548036 9.080937973518388
Co 7.457171749688751 11.311497229224942 7.603311471855388
Co 7.25090552194477 11.658026170421527 9.988580058896115
Co 10.737468679988146 9.617852710003332 8.218100587544543
Co 11.375100222780171 10.930402336486736 6.260205850636872
Co 11.584125295918446 6.53248813822843 11.068077845951324
Co 13.848772693775235 10.645667170441536 11.437386429705924
Co 10.176678834150804 13.890808317361877 8.963775149295252
Co 9.733142108820969 12.164843472921524 12.953878525769689
Co 10.859263503539522 7.887307936940934 12.797667301094501
Co 11.420740062835302 6.9507444057720384 7.197629836075058
Co 12.535523303881055 8.7096177327889 11.38488748147145
Co 9.29051173504625 7.854142912534965 7.591993091923488
Co 6.934760152954895 7.33377490081355 11.634717459210625
Co 6.48590657259863 9.268730804353606 13.177880586710607
Co 6.139722801835528 8.056401249929987 9.353066000045482
Co 12.563414149281634 9.21853462781557 13.631057124589328
Co 6.76608699616005 9.600295106043372 10.991087567885922
Co 9.637639556647786 12.493080022342754 6.891144682119295
Co 5.84032480871169 10.229797596050808 8.789303649374439
Co 8.82189394189253 13.093367854307223 10.916203285203672
Co 11.588428808531766 12.115658038080012 8.219427132023299
Co 11.115638870827395 12.686200922141872 10.782604763572404
Co 11.779231348259328 10.98466327621551 12.418920941639152
Co 7.553352027800164 11.509561562457955 12.318152273371794
Co 8.184588768593445 10.483971017033014 14.204586091315756
Co 13.63683963495624 9.728157858369793 9.246936712363937
Co 11.642869191054926 10.528332148685845 10.106000833361692
Co 12.142279265743486 7.88366034116905 9.14913700591132
Co 9.207655406465545 6.591533225824538 11.6476979873897
Co 8.214962845844715 7.257889818555958 9.665078243045382
Co 10.203417961523119 8.443679126867169 10.482303616085868
Co 10.698835643959276 8.65177464800152 5.827857050880194
Co 8.611727774550182 8.741516471618194 12.490275255382137
Co 13.06872073584533 12.79890222972248 11.978600947901452
