45
Energy = -260.44181466 eV
Co 8.20067548779423 5.422534680865058 6.32156825195058
Co 8.07333521014021 7.204772512017666 7.687780961187054
Co 10.84417830739268 9.217631992736374 11.894060426690286
Co 7.616520597040164 11.38007680874714 5.714610498108575
Co 4.468992009107472 7.459578921842953 6.495703961236781
Co 10.820376862269454 11.983266311025174 9.006186725151812
Co 7.74014494530765 9.457165928482887 9.188191880509855
Co 8.018524837639543 5.253054539042358 8.928120869624848
Co 9.28867520257985 7.554217093333084 5.670904123768188
Co 7.926561619957668 9.375354127504753 6.6664590739262115
Co 10.14830512618458 5.361292381438195 9.933718087213515
Co 6.811983216239671 7.460280077824075 5.6097576259033035
Co 10.423377116854752 6.458009399048568 7.8799479074757555
Co 6.425119131536308 10.847041873756027 7.881241733406611
Co 5.230808374588551 9.346264956018743 9.65574194193595
Co 12.248089215042146 10.20870230312508 10.007606900852803
Co 5.817905858808301 5.2679949105149 9.739193011317061
Co 8.419852390978017 11.678892675574888 9.919298095986026
Co 8.003194121738174 9.335470271196476 4.438062135517649
Co 6.712630724659426 10.467585085212987 11.040552817680231
Co 6.067488703568232 5.9599153199653365 7.513021422689667
Co 12.685129716904369 12.479511750178242 10.467000568565362
Co 9.070238119305714 11.117713158438656 7.715484774917646
Co 9.852976967326342 8.786949501345592 7.880913234197553
Co 5.8151421418508775 9.777963003419899 5.765071086733787
Co 10.686730233511206 11.642198146130026 11.308268142085401
Co 9.160669132215595 7.438302206888535 9.73758542301347
Co 10.282261817100856 7.001604997502537 11.684010595632662
Co 4.504778668013847 7.18132095568164 8.878911531210896
Co 13.030569989062167 11.705835407700324 8.36352701204805
Co 9.742038393821597 4.3027507694800535 7.669995152247781
Co 8.80085995456019 10.6945416028475 12.082864862501651
Co 8.046722235547339 6.024728411282525 11.209301960647913
Co 11.498519812997166 8.024801004375686 6.458293346870496
Co 4.180202890282899 9.688193532372168 7.501213877160739
Co 10.047678414344217 9.843370713069364 5.750119532808226
Co 5.940704262430249 8.398212611009617 11.748133486065576
Co 8.231575923179713 8.545403184774694 11.511120147068139
Co 6.652640506274123 7.344409833073819 9.853854554074784
Co 9.88731510437624 9.88842643031014 9.961524850501007
Co 10.53167456046882 5.606018073228139 5.793582704140418
Co 11.398231788913161 7.987589906609537 9.61845871349139
Co 11.576683196197312 10.182002071995953 7.570320142312405
Co 12.600091528641517 10.788980773125923 12.173393839557903
Co 6.068638480406116 8.448882683046172 7.704134907172497
