40
Energy = -232.33935008 eV
Co 7.686126826843321 8.700145885726373 4.351403795285691
Co 9.636115690834533 9.99464161214429 4.3821838312505355
Co 7.644296743015078 11.018623201511968 5.0032821407328925
Co 5.880417861867354 7.976394337221323 5.885125444148056
Co 7.882680832407771 6.617635973363466 5.680733036521305
Co 6.008572212739159 10.445616519801744 6.539153888461986
Co 9.871701384926698 8.05316631564703 5.593624742916301
Co 9.33915338027241 10.988120891071846 6.5526757864728875
Co 10.257130515741988 5.703137768267152 6.043685072435374
Co 9.731234551917574 11.54002827681845 8.954843711691625
Co 7.875684058823491 8.941283700291372 6.600902452625611
Co 7.390061458530995 12.310172596705007 6.935464302644937
Co 6.62871437758255 6.548024757208161 7.637692944672508
Co 11.346502645734212 9.74813347080183 6.108328710221859
Co 8.458245368986104 4.769396403568687 7.39425841773067
Co 5.668628301698269 8.763047780420752 8.137336039128028
Co 9.13184843622049 6.93259644264359 7.589266904051685
Co 10.307647738298712 5.395640607194393 8.837707658152842
Co 11.417180085865775 7.315445741875687 7.565043709176344
Co 10.058672605593543 9.293165587225825 7.993590968632812
Co 7.670472002582128 10.578424242656025 8.356940597952208
Co 11.245015765343135 9.808230615670453 10.121396957896131
Co 5.562818173247964 11.135667926006304 8.790504035196234
Co 7.773662947677264 8.204611522083669 8.848514877754905
Co 10.166720845959142 7.5317383139352065 9.749371763514034
Co 12.384616689001074 7.789668212477797 9.781140214743369
Co 8.04067075290562 5.828474788008061 9.54976050623743
Co 12.414494534926606 9.339896939494514 8.144921692804765
Co 8.960542303524939 9.714047780864314 10.175412949641101
Co 9.880799210360417 11.271812798336642 11.532187920921213
Co 7.724486716799785 11.623868177130097 10.494693525214743
Co 6.001761548642867 7.1854435401274745 10.017950046877433
Co 6.426653689997243 9.544226521659171 10.372642999018407
Co 9.578572931099355 6.015349479392668 11.396694086881762
Co 10.10833738142332 8.577317635668088 11.910941039981518
Co 8.060783051021856 7.71086919275347 11.08587264661713
Co 7.166095849598921 5.830569076114638 11.88592600998833
Co 8.029105831576878 9.729803481499415 12.303819084333515
Co 6.220505996979128 8.041710480826776 12.364369779740274
Co 8.328488427520544 7.449071133873708 13.295855435819568
