45
Energy = -262.75683513 eV
Co 12.012543213294594 7.061188323967595 11.546911205057064
Co 14.145691974181343 9.133993351142323 8.741201129508651
Co 4.433442362229232 8.249076660132895 6.424536531313717
Co 10.905021236428079 11.010780913167485 10.490073485777907
Co 8.888486099285238 9.378235990557656 11.530897445871572
Co 9.38101850100876 12.099844587239671 7.824014883652591
Co 13.172816113159426 8.670815044969094 13.00991989891843
Co 10.274059796491375 6.01501086132922 6.752332598692965
Co 8.069945522872967 5.741967288329648 10.472127718206453
Co 6.9203884108516736 10.725859794053076 11.790397877172287
Co 6.55205896951818 9.347574560619057 6.006481425668583
Co 7.8077260492631355 8.544577982320487 7.7187703144863
Co 7.747320880159324 13.003976358515885 11.470480195741656
Co 12.029998040084621 9.885040946631232 8.628252888457052
Co 9.851121517347327 13.110941364001091 9.968973137783728
Co 7.093206152629052 7.80251062907122 11.491853547153266
Co 4.252743043300551 7.482907570165771 8.596703139629193
Co 6.394462436898142 7.1182815978709915 9.30664935902333
Co 8.370126462579732 6.1877653496823255 8.039190317233166
Co 8.40270990729317 11.363713989629515 10.082633527927452
Co 10.478638524534198 6.207347001540508 9.471647009684505
Co 7.298698839930593 10.949658997743354 7.773905361973915
Co 6.010484375595016 11.417479682753763 9.735308170752281
Co 7.144920209296399 9.426398722221112 9.807570214337053
Co 12.418624400467039 10.90744338619333 12.252398961821912
Co 12.486948874813153 7.459805064568846 9.02703520632125
Co 8.53174368431281 7.337292237998952 5.9236187656863555
Co 10.391330454184233 7.987156565748364 7.764730959461013
Co 13.238353909498919 11.258470856555615 10.027540295934333
Co 11.018377384147108 9.117013491167814 12.443547662225203
Co 13.059035107491203 9.066681485114007 10.810512059250053
Co 9.511935281542309 11.52687000308474 12.200584392722773
Co 10.578410087382744 8.407951668748792 5.497352248308108
Co 7.5275331848936045 13.162366334522593 9.025997113204216
Co 5.1121999313645485 8.801716337097522 10.500693423538678
Co 9.685721820450702 7.0493861296738975 11.7302319604026
Co 8.728695984210125 7.744748725110373 9.740710868060669
Co 12.475614092136748 8.53274903442661 6.842671668086027
Co 6.251402907136771 7.05720788684377 6.888380566689618
Co 5.473251988653795 9.39608259502098 8.165122718049096
Co 9.512730446374043 9.933983727054079 8.66190042446811
Co 11.005652607617298 10.575591498958243 6.745601695548219
Co 10.80533357148015 8.527070503560688 10.20357209013581
Co 11.571351485963199 12.203952030330642 8.546764509887831
Co 8.896259117209139 9.92964783012655 6.238335985736996
