43
Energy = -250.03711581 eV
Co 15.166483613038103 9.597804993171817 8.276715014781024
Co 14.738537804943867 8.46424228904296 10.634757600797661
Co 13.441845978327121 9.354938504115607 6.770767177495765
Co 13.857681883358113 10.550380685713526 9.958472238826326
Co 13.26903990376562 8.469448786187943 8.916870081966277
Co 13.769484033263367 11.413302130845695 7.774609371628424
Co 13.432577416856473 9.6205108249367 12.09076662593198
Co 12.406848255936346 11.714725206417922 11.607301205762598
Co 12.462910124928344 7.6019880258205665 10.987361003127413
Co 12.067623299207662 12.04357006867795 9.24685028716725
Co 12.508795012169898 10.943763155477242 13.87683302577288
Co 11.643638150779736 10.020520029679833 7.97185200451714
Co 11.257773522274881 9.223777121909757 12.773458587632325
Co 11.592644026217858 9.74624494344303 10.431398384709327
Co 10.45763263694148 9.895672495515015 14.768641848458886
Co 10.085631474808032 7.913404194966078 11.153935734797432
Co 11.067769065189928 7.772203979661599 8.942782368801401
Co 12.231776683242678 13.26272227600416 13.256936240000542
Co 12.435572522117228 13.859810457805269 10.68842123804221
Co 10.643847232278821 5.963243967606572 10.218941518178351
Co 12.403787824541755 13.968598775075314 8.10194772619867
Co 10.426279797214015 11.612930394023465 13.124299195352245
Co 10.464680354267513 13.705767538541688 11.887330878506535
Co 8.770948109962408 7.112055238283836 9.346136573534094
Co 9.09435162375624 8.427029541777502 13.332021755902645
Co 10.430122127009238 13.835327457748756 9.373210903420258
Co 10.111680255590596 11.786685176601415 10.571686564037444
Co 9.189860763782328 10.02775101859873 11.670443090230615
Co 11.73807005654343 12.075585741628942 6.80975042931888
Co 9.63018265043308 9.627000325168252 9.125773573882887
Co 9.870994684533333 11.791239232970378 8.158150535240795
Co 8.436731546145875 10.645795004810394 13.889084108331163
Co 7.917087596809717 7.133715120864711 11.557273089680981
Co 8.655096943884239 13.159106517998984 13.20528696969282
Co 10.278988434402061 13.875772976495826 7.080238812402364
Co 8.43232707506946 13.465298996085625 10.746592273638303
Co 7.646585131380697 8.996584081373397 10.139393793876666
Co 8.252555157609919 13.427369041582931 8.454147593021478
Co 7.022725632398475 9.306778937723315 12.450131663823575
Co 7.927999076174549 11.39062197964961 9.607890127352414
Co 7.522518858888164 11.638484180844515 11.937328994490219
Co 5.816757698895052 7.973960555859515 11.047242379915977
Co 5.975757157872723 10.443376094822353 10.657231992961524
