46
Energy = -269.05972106 eV
Co 9.959511550100876 10.191465495748107 4.748298725327679
Co 8.555318678002916 7.917785502147768 5.176182518532191
Co 7.724398263309891 10.374975258429927 5.340638091504154
Co 10.801205189947128 7.396788660081671 6.302430848045279
Co 6.957842171343713 6.480988720910668 6.390033995559194
Co 9.097028099728574 5.723142107335854 5.60362071401868
Co 9.478055027508425 11.763791832559287 6.458860230458396
Co 11.456236295655284 10.177618241293793 6.803647605662602
Co 9.273979446277409 9.319308039267066 6.7060995779159684
Co 6.776859694462174 12.956099914055974 7.618329821911506
Co 6.863563178498624 8.747233761358732 6.877415179105608
Co 12.842035637712389 8.296999158501661 7.969990808567777
Co 7.542730867283034 5.131424926221506 8.151361289393066
Co 11.500399682921627 6.340504395596573 8.623203155280134
Co 8.895959094499396 6.988218125882661 7.612089530390792
Co 5.332911135508975 10.244339322833595 7.830261237812971
Co 7.564049179265446 10.904303988940079 7.667952385801771
Co 5.711490226898994 7.269026492579116 8.23740295604195
Co 11.250058226955742 12.422941970152612 8.155101382162842
Co 10.721530216425444 8.532035866245895 8.364455481537599
Co 9.860462147881726 4.86751125228393 7.706166043490272
Co 9.88882019354849 10.750339121493086 8.513139383303127
Co 8.845196807962592 12.827983653160901 8.76729778744266
Co 8.272150011637251 8.850885491511566 8.818965804176175
Co 12.114855430688614 10.338586189879342 9.286059547286007
Co 11.167316254873702 4.172185722653612 9.514198239096809
Co 7.279058293936644 6.768646953994393 9.801316880656604
Co 8.12499527433373 10.839618279219218 10.116994195393083
Co 6.818116394244879 13.860157907331724 9.66996245009241
Co 6.084677971051257 11.685173362753963 9.524559808002419
Co 10.417768535644681 11.878801829424669 10.53725554594158
Co 9.082144185815086 4.985004019634394 9.981340651324917
Co 6.1518552841358 9.20001064333942 9.681272013655033
Co 10.187370526787186 9.563325997595944 10.486593150343548
Co 9.669178990995224 7.206397083881566 10.004714319843329
Co 11.976197608478213 8.023502464931305 10.393271593320682
Co 8.13573207226706 8.61844527880412 11.153486643996768
Co 11.942410710149872 10.058553607983775 11.70412609585752
Co 11.116508181346996 5.903486922484252 11.094196223611705
Co 8.281072631936262 12.775791549357697 11.126218770648878
Co 9.00061505665695 10.478945994518208 12.322282941492276
Co 6.102560041887973 7.814592292659348 11.677509603540662
Co 6.6163377001419335 10.245120226826213 11.83599632563763
Co 8.497517051201724 6.4259968342246285 11.904679637443262
Co 10.170908688299457 8.114786927099622 12.290062436737161
Co 7.777904702862185 8.454051223880521 13.337850983706678
