45
Energy = -259.50475025 eV
Co 11.572700976601274 10.517674869558546 5.325141329288815
Co 12.461103132833081 11.994079648076898 7.022425734678395
Co 10.215805891640453 11.11667681334075 7.052248461958414
Co 10.321940987173667 8.818510757009507 6.32451455423266
Co 12.232187590540745 9.649695775270164 7.3113220778287795
Co 10.857345568090254 13.116083948786864 8.185427874015915
Co 14.396062782249054 12.244060747833265 10.616860036429438
Co 13.145601441067901 13.457059106313793 8.94142099352315
Co 10.228605208602776 9.249858177045958 8.612145020579195
Co 8.642688516317147 12.778488406499871 7.841052690653758
Co 11.297063916704163 14.689835068386413 9.89439216023869
Co 14.594989478460473 13.289486654604751 12.862278553198903
Co 13.130610145685381 11.08784597120254 9.042096090977942
Co 12.559120490433783 8.788175684569813 9.454252905123989
Co 13.867690430290224 9.883811870722568 11.035976567791314
Co 9.509827078426397 11.287804613034044 9.317771266747865
Co 9.238406600355109 13.529898317660825 10.00254486311889
Co 11.428052786997384 7.396477017547985 8.002823124384934
Co 10.644591265923825 13.68877113290396 11.966377914529065
Co 12.916195906008145 11.55388465172146 12.328107225073492
Co 12.949661693628679 13.911442185296602 11.326487160725206
Co 8.909906665741412 9.36407386246646 10.627648192693213
Co 10.61638212873797 7.708495159903536 10.285280042429404
Co 14.053858771948041 14.054560598765152 15.059912177204225
Co 11.533064086956504 12.251694302988229 10.289048392338668
Co 12.322805792306031 13.464205673960263 13.633833732772557
Co 9.061159278257698 11.701156128085643 11.53430977249492
Co 13.989108685490132 11.772583277503676 14.506980625165122
Co 11.124389405206967 10.010825858874666 11.079688050538014
Co 15.258063440091231 11.063390863640103 12.61343258366672
Co 11.732479780714172 14.96712105568344 15.21112355354514
Co 8.36772334874912 13.729754601480067 12.34050164116428
Co 13.554390907353543 9.521458595165301 13.34643639889108
Co 12.446900204582242 8.06888683891784 11.728957087409139
Co 9.906066136907107 13.805395478921563 14.185080308106903
Co 9.066246873884044 9.806553719061013 12.933623723155533
Co 9.71676877357161 7.691233029444552 12.352635627911834
Co 12.04616490018149 10.672481210502928 14.873650662146192
Co 10.683589354288845 11.588892542085 13.212481934147315
Co 12.287414776254307 12.87245068397219 15.968903412814125
Co 8.472051859352199 11.919777329521484 13.876286821306593
Co 11.238706204182877 9.100932986571928 13.378423276219037
Co 10.223503508391117 13.894845332922372 16.53081925937591
Co 10.15372792721314 11.862058362144001 15.549279418790698
Co 9.704399675270412 9.736675463694857 15.095121074276882
