44
Energy = -255.60237127 eV
Co 13.2765913066723 7.391283396593414 10.15137802886796
Co 11.071825239887923 7.4217657730034245 10.909533606953508
Co 11.429767195936325 7.385792573854703 8.675125617388598
Co 9.614942410918523 7.081326310677329 7.27085618466765
Co 12.695929757955847 9.074715849443816 11.580807707973904
Co 12.749916157143987 9.402707085461158 9.123485730349872
Co 9.053588917591446 6.4976511172245015 11.666570681154818
Co 14.148986105217666 10.74349005743137 10.791630620070531
Co 11.132530493725103 9.136455913115942 7.204182319816951
Co 9.643726945311286 8.678662681642582 5.578902140554316
Co 9.23055603114688 8.764991693830083 11.726337019952476
Co 10.841007482276423 7.854152209221447 13.180705425841374
Co 14.441780541838837 9.745362375994695 13.01937702705651
Co 8.967577175397706 7.5100522304707065 9.568306824913899
Co 10.87724608674093 10.262686180473144 12.421549146382805
Co 11.313543860325728 11.30999789903956 8.050908611864442
Co 13.567785856007585 11.643055444701801 8.751713931401165
Co 8.750921111843107 9.143418150805859 7.767103066442187
Co 12.34471089091977 9.3534801583538 14.05705645456896
Co 9.674392959561274 10.895720145362656 6.453570259730223
Co 10.35645217576765 9.479379734632827 9.538123494611726
Co 11.79978926825885 11.242631274171917 10.41291064987549
Co 8.915633261314785 11.404745036625856 8.585245561959427
Co 7.819014635524444 9.720837213597896 9.89314851846558
Co 13.568161525190726 11.105141124776358 14.799469240364257
Co 7.111583696796763 8.064135548718411 11.286892814926393
Co 12.139143899124647 13.560288986951592 8.492819788852998
Co 9.390991678193126 11.346067107595864 11.00413020476705
Co 9.424352356245231 9.581888250983946 14.042444517956515
Co 13.061489247436617 13.098851117586959 10.780742804221775
Co 9.985394436552612 13.16067776545625 7.422235091426273
Co 12.984927215006545 11.510366699655185 12.63397120825896
Co 7.60208409447623 10.212478940319379 12.496339854733266
Co 11.16154206235333 11.368391189011842 14.40346778069479
Co 7.219639744908754 11.972940262633703 10.411604102993596
Co 5.840708773328772 10.147552288484267 11.099756184853371
Co 10.320538479912086 15.041667919352289 8.607737691967026
Co 9.039093893893462 11.852494804144603 13.39034640032766
Co 10.99545338816993 12.769247448001257 12.368976535621513
Co 10.605608828905375 13.361367158919133 10.2182285628033
Co 8.615167921476734 13.473835571815036 11.717541472779626
Co 6.817947206505268 12.335878352422114 12.644887351686325
Co 8.542299083800096 13.58869945432817 9.263592325979277
Co 14.314552647809656 13.762565550482478 8.995183481291177
