47
Energy = -273.77826536 eV
Co 12.68945818305144 13.871847067313064 8.687576467237456
Co 11.581249308938109 11.961914058221396 9.597039698029999
Co 10.912788580253238 9.66919066280127 9.265822477710417
Co 12.287281532182364 15.943562050814899 9.628832594505061
Co 16.29822184674774 13.05165400740958 10.003581847614303
Co 14.167547124292133 12.38395095779122 9.674442402919562
Co 8.982643683569076 12.965182284708472 9.950116998568435
Co 13.227339125487099 10.310921305557006 9.551945531132919
Co 9.678859284796712 8.666937485014273 11.170287063523096
Co 14.607115047915983 14.840536545621694 9.809666273819435
Co 13.344082805521902 16.333392681162763 11.544137837676223
Co 12.92942829012757 13.940860238434832 11.099762876358799
Co 7.570056669468349 9.922445267324823 10.40009474854075
Co 10.784418212510525 14.303397574125437 10.072708909502765
Co 15.523190571167573 10.99613700291957 11.103100675438062
Co 11.647413869100937 9.924870197249406 11.420926243279274
Co 7.526239519917501 11.92538238242861 11.448965936130813
Co 9.600255412249739 10.940790368371227 10.67162690806515
Co 15.128766581019153 13.418718622288052 11.851896651371415
Co 13.92147034541718 9.024396027209535 11.258217262245003
Co 10.269347003419185 9.263893638512045 13.509854406882907
Co 15.530334306039304 15.689516631865642 11.886930946719401
Co 11.015005006648092 12.623973430285771 11.702638401647615
Co 8.184977147438643 9.716566227169125 12.549401105222554
Co 13.825276204010212 15.20906522760105 13.475953814271623
Co 11.524684964638032 11.17664788181878 13.506070541999287
Co 9.163255232896539 13.940249945408132 12.083888433122198
Co 14.333311918681725 7.621509173371302 12.9808907344789
Co 15.942862870854055 14.359426766131913 13.885861049974771
Co 11.330003640633029 15.097887471817021 12.289140032735263
Co 13.437873751513399 11.437146088107365 11.804484011456488
Co 12.802321700841485 13.16235326481384 13.383809105281589
Co 15.595705065688072 11.998737977227407 13.540847901648414
Co 12.110715265383574 16.73376186413094 13.722954061775491
Co 16.3729398157288 12.75341938423299 15.528290021317781
Co 12.710992080908571 9.068217653383648 13.35896066739121
Co 9.18179245810578 11.710430831586473 12.99538225034768
Co 10.07555034160369 15.611614552285745 14.117728469999628
Co 11.822919267088976 9.845524570671708 15.419194199453708
Co 15.062628257348715 9.77248196832061 13.07585714237006
Co 10.479960648914274 13.376835537386665 14.0393231366265
Co 13.71118962532813 11.084018192074623 14.442152174185113
Co 14.247206206756257 13.47930201555831 15.167131626324187
Co 12.088485206760968 14.731298595228468 15.082324000005949
Co 11.987678919545424 12.36402555581995 15.627129729771625
Co 9.88629373658747 11.125902778140228 15.123323933032191
Co 13.967331802928163 11.718574430308157 16.558197138313478
