46
Energy = -269.14425553 eV
Co 7.518790943489862 7.874826244081943 5.221269901973889
Co 9.322002375170504 9.253418980890427 5.870977452778564
Co 9.691083555241756 6.828260820142565 5.5209243181456555
Co 7.117293626495042 10.289098304164197 5.687261885300991
Co 11.49915147459859 8.442318040865446 5.970156439027819
Co 5.326541429123423 6.666978430361467 5.777279884256322
Co 5.190060532154402 8.953884190992191 5.373913856492272
Co 7.3039612583845654 5.875029245434466 6.613236046132243
Co 8.69542335477558 7.522066440753492 7.434595397332976
Co 7.943679679210669 9.852196675570488 7.813694348916522
Co 11.30442923896865 10.701158279208874 6.706191117839319
Co 10.217919331340068 9.278971011429245 8.125542841448954
Co 6.378485343842827 8.13308566237001 7.230385918598908
Co 11.000192441905197 6.966092467488782 7.685174860305313
Co 7.176147027563737 12.001647799171128 7.964826261225399
Co 9.550938365642343 5.1869640609478695 7.289653930527297
Co 5.499960325830909 10.25376654187237 7.429895516974719
Co 5.758186943743702 6.326758339425763 8.473578239529514
Co 11.746695860109373 11.03859390979206 9.058737969800605
Co 10.901671654806334 12.743452790147817 7.608004676762783
Co 9.046778295624375 11.550390405791575 6.46212773053117
Co 4.065894173279264 8.10173753328328 7.246228409904099
Co 12.50705559526848 8.90617386459624 8.105792066980738
Co 9.367976273338959 11.58230271288415 8.794604248737645
Co 8.01249650193282 5.738012890057706 8.977365725675485
Co 11.112234715513983 9.164386094550037 10.332842701037906
Co 5.052476110078956 8.496281994566308 9.288328316629586
Co 10.546028430484437 5.314650640242164 9.520149635257813
Co 12.134073544822748 7.1250308667996025 9.753209290496574
Co 13.441883241788988 9.481500598190719 10.098904102689096
Co 6.35989320012073 10.457515378224205 9.58340781188339
Co 9.64451528346114 7.408662038146658 9.658226526516406
Co 6.49095772721281 6.51670172986565 10.83924220977341
Co 12.285371069142519 10.651733712098306 11.721098357424156
Co 8.719479758933936 9.727379847440467 10.214876172237252
Co 7.328113971055634 7.992339021207919 9.40046083355703
Co 7.879086729512606 12.00144564459088 10.509678028303913
Co 6.026565860063732 11.230131813124242 11.713802509752536
Co 12.6100033147502 8.363887434934998 11.943147751284869
Co 10.729122243612014 7.053216769427749 11.686952832236775
Co 8.784491734013082 5.66352969908375 11.156633440574776
Co 6.426114877432375 8.956659761085858 11.40921234672871
Co 8.142411970805382 10.45002811357795 12.292072908562991
Co 10.218727154589791 9.353016244152359 12.415950850069324
Co 10.198623640669581 11.361906809992892 11.02948399369372
Co 8.441876957881261 7.877677284761846 11.705767473878485
