46
Energy = -213.91818618 eV
Co 20.365215805345173 11.284131803262882 15.265956525574447
Co 19.4288942710728 15.050519089947585 20.90772113425135
Co 22.85878918942421 1.4837127558261762 13.957847254436947
Co 12.712322047449815 24.499039658985307 15.456591012339679
Co 21.116711093628457 18.9989159714859 22.523392332035304
Co 16.83054729218032 12.416397524478842 17.916881594978367
Co 20.543754687367525 20.587122669207062 12.735710134314722
Co 21.89984456581037 17.93887140169756 20.476636953398142
Co 11.523094973943655 22.63938212752961 15.084302240728617
Co 21.046803505231914 22.79792851097119 12.635248857278356
Co 20.094153077572876 14.48775801326523 13.315454463218737
Co 18.848255668634373 11.464765603820156 18.688565945560818
Co 22.22029788336819 24.48521933659446 13.584359977923903
Co 20.16993319333111 12.207666326891344 13.13409030219869
Co 14.455289795202365 15.83075551362443 16.297931018563972
Co 11.66196668246076 1.3593895003383718 15.983004468409906
Co 18.945496030478374 16.357052839746455 12.956932353748364
Co 18.34433416227138 15.379091361559077 14.836647368930008
Co 11.225369503997511 19.16303569035708 14.678649915304431
Co 20.417454230720427 16.883779602685337 21.670255477979442
Co 18.01914167696189 16.60676442734194 0.026553631758911362
Co 19.387021340723763 17.731710934482503 23.576325309406677
Co 18.713720562260185 13.753517871921291 18.912603099078886
Co 21.954510760050802 20.14226391944825 20.892245182843077
Co 8.19801839342466 13.22909859636629 14.255102086453793
Co 15.685182523704585 13.908209786008262 16.352453727055742
Co 12.60487579494544 20.855730004702117 14.57646611093476
Co 14.622720511313146 12.198919052872165 17.330774092686184
Co 20.090471972704368 12.84773405706527 17.294816603763454
Co 10.263028697486229 17.15798413378673 14.758863986508985
Co 10.422882959067632 24.535055840558705 16.024948073801745
Co 18.38117636640683 11.422656138582141 16.44879729001292
Co 13.430778139943154 14.092142915489141 17.168252693417077
Co 9.261329622080302 15.238777897105937 14.41903246275774
Co 16.827881206644445 15.883172295115346 16.29536079847412
Co 18.023875868406222 13.93829932250884 16.73438951909982
Co 23.10955580763695 21.72929001021389 21.828815354618545
Co 18.8147105652101 18.58080716850828 0.7017951716856602
Co 19.76690840838271 18.603382056741644 12.453420883928098
Co 20.66606566548947 10.617775781995102 17.372150729951766
Co 13.845417475066133 22.81792552942474 14.569079729011314
Co 19.32185836061716 13.260964269744491 14.991423994380037
Co 20.18876020706839 19.80933775522213 24.36662557792586
Co 7.7188697805289594 11.249865591629371 13.941944702555208
Co 24.03773367691554 23.16449340849198 20.670957012971378
Co 18.48826760037565 15.814233255972866 22.785669325282765
