47
Energy = -276.30572187 eV
Co 9.620481609841407 15.602783348695993 10.422386058496853
Co 14.451901336338675 7.761686900741984 11.494771138920651
Co 14.353319317430064 8.78072009396111 9.441361725039428
Co 12.47103124738582 9.034546094118227 10.932035341321528
Co 10.550067090586795 10.024982965810473 10.090782878964738
Co 11.296761273933917 15.568319812061938 12.062295523741222
Co 11.122272908814134 10.097211224469936 12.86585357555331
Co 8.234342166622957 12.532989920267939 8.020820771779325
Co 6.95789116837888 9.807669624250764 13.239351798757417
Co 12.368739166222738 6.938333741223348 12.13763361521121
Co 11.485367320126967 13.648309460235227 7.3479940150439935
Co 12.138129593470598 11.604261511543491 11.15600054589456
Co 12.150630010751549 9.066828514327614 8.394879750330386
Co 13.228670779235733 9.014873143578406 13.159241034154869
Co 6.644740269386142 9.741296442789025 10.949185535219142
Co 9.564123600237892 13.993178368978228 12.480273576677629
Co 13.163842494612153 14.891287767813484 10.593226233306748
Co 9.854744634490654 11.899567077134352 11.509522066829518
Co 11.2225040623765 7.868978800739355 13.86697360603023
Co 9.169528088714435 8.874820404903426 13.815193393304515
Co 12.74889587638277 13.0922314462898 9.137058013620935
Co 14.347063330132684 10.309792082086602 11.43440143986269
Co 8.51705110767214 13.425830200455735 10.383859742950458
Co 11.04772513971147 13.806977897766046 10.600947452111978
Co 10.534739774398652 7.715522666416651 9.257631147583407
Co 9.703468307046 6.317201250486855 12.887449473507257
Co 10.273781239471086 8.073919260201523 11.5920063448015
Co 9.790186605035222 10.034582371524543 7.952883469613053
Co 8.763165631226475 9.887188477770016 11.764397457440712
Co 11.002227351192303 12.414065149997167 13.508948458365191
Co 8.701818675685033 6.530413087071488 10.549456396726459
Co 8.9692157979948 11.25351360441301 13.659914885914036
Co 11.920702012011082 11.188669963021624 7.455866019208507
Co 8.480483829454107 8.69945230954032 9.700766947550195
Co 12.591101629749087 13.603041051556017 12.416036974432176
Co 11.586720371627184 15.441301186528602 9.029129498073276
Co 13.319611496819386 10.843551664373294 9.320310960288573
Co 9.961917426016598 12.113494592897705 6.606174576095489
Co 14.203369296584649 12.625843737933659 10.962825534115963
Co 10.410765686500481 12.128326278749645 8.967155056991981
Co 9.584844929327648 14.31516918696331 8.479175741958647
Co 7.82149043020555 7.8144023955337465 12.228544691293003
Co 8.25385578191453 11.064951735897267 9.716169530505717
Co 10.874577218718136 5.888805950198276 10.771719246451374
Co 12.758570041380604 7.044698843482319 9.775042869605976
Co 13.216215907881722 11.37076749511805 13.185564012578887
Co 7.470292989001454 11.870561455751536 11.901341560592838
