43
Energy = -250.53955173 eV
Co 9.647230591127697 11.173422874640545 8.233829252643933
Co 12.052874646082834 11.768543251463738 8.609584799078386
Co 11.438810962992415 9.920069376401091 7.4436784292746925
Co 13.836868649328537 13.16276020425035 8.105259953139491
Co 8.70971343291881 10.471523521094904 10.207062549121177
Co 12.263821483890807 15.5897706995977 11.177917262863266
Co 10.916767473699931 9.625092761190515 9.6345002119723
Co 9.69603271662908 13.383255669021676 8.630319057982208
Co 15.495045496882469 10.156812232753563 9.39958065246289
Co 14.259236889507962 11.954930073562643 10.014082227000648
Co 8.194139098854142 12.77480886462088 10.314351396094033
Co 13.256457785642136 9.778500525950095 9.096393861257763
Co 12.394306451801322 10.877050499747218 11.030690666672319
Co 11.905624892083644 14.127383697823822 9.097873938692173
Co 12.390438713869145 8.636244738764509 11.208917721244951
Co 10.217172821279837 14.450966991586377 10.759400341640463
Co 14.085636092134141 14.334234743889734 10.072455043485814
Co 7.998723486412515 9.005740993214818 11.853333665883534
Co 9.968537238681618 8.106857163642779 11.071362915180043
Co 15.646898354958944 13.317407299244653 11.46235957942089
Co 10.419103864227099 12.037084658239161 10.327003813215136
Co 10.165266588576607 10.274031707923802 12.153569519135077
Co 13.918427526203375 14.497628905892578 12.509567896992396
Co 14.021921076613266 11.989381744266607 12.437605058661948
Co 8.933110331549184 7.1949005007846925 12.96797757617499
Co 15.55659585264723 13.105696131550284 13.837622880254866
Co 14.493316088050575 9.852569837462486 11.430330764165449
Co 12.272075751190487 13.263585785799531 11.215627675923002
Co 9.504856694531497 12.948202905931176 12.324605057543664
Co 7.922725233517996 11.273738757034767 12.381854345809803
Co 8.902731308553273 9.297091972175071 13.91142302491161
Co 10.970458625056713 8.316606931746056 13.137160024936529
Co 11.307631798926792 14.388625646108613 13.103027822872171
Co 11.694645035458908 11.950682557344662 13.215336139422
Co 13.394645042858597 13.272833494621718 14.452615185496255
Co 12.819795307429649 15.481455292462762 14.246305125212073
Co 9.407250493601406 13.971687122967381 14.341991678801783
Co 12.886893137110288 9.865595661834945 13.208272140317455
Co 10.987972421991811 10.16953722211636 14.650352278720511
Co 9.320594795890816 11.65949025865263 14.268789778602446
Co 12.929840162003675 11.153811098967939 15.275720891352977
Co 14.867248683964453 10.817874364341275 14.134378680252121
Co 11.1530868989703 12.827041257016349 15.270439113817567
