48
Energy = -282.54265904 eV
Co 13.649024702248294 13.550876931020351 10.693902714035099
Co 12.128613503826177 12.860547846479388 12.212054718533096
Co 11.043846694693672 12.383629622506405 14.183773745470504
Co 12.735811073902221 10.830610636794702 13.475022252901066
Co 10.234643018923698 14.21941761933256 12.76399473302311
Co 13.90961100153068 11.153687851748325 11.446376739770994
Co 11.582506958468695 14.701578675555067 10.70980849903359
Co 9.03105379890505 12.182099701293067 12.982350896666306
Co 7.9325541078252995 13.6596359796375 11.562373297294025
Co 10.28926294245973 10.243515261222653 14.408350625977384
Co 9.348712072147372 15.317802952250277 10.87454140487524
Co 13.94163385931576 9.011060782342739 12.599061362411305
Co 12.058801666424303 11.651764019583219 10.14687769205655
Co 14.311103681431266 12.13844700076166 9.088474067139169
Co 9.991798644886266 14.290125559237758 8.89741399792103
Co 11.706888873959048 8.743361628464568 13.257366035489378
Co 10.771675346098181 10.828768999727941 12.169531887196964
Co 13.72601211523803 9.93787558757507 9.289799116692564
Co 12.362770804122984 9.327669785169848 11.050815627633343
Co 8.573805355173148 9.853893474018815 12.918975375333318
Co 10.063932281644 12.927342196384693 10.833221791987345
Co 12.257357471897596 13.540613906597954 8.766144710278404
Co 9.667977170948928 7.944032225772603 13.85518173661186
Co 7.438834304369283 11.398064156510422 11.417504535381127
Co 11.994911065388328 7.100300537306871 11.557626611184425
Co 12.527737622288427 11.320723694881508 7.767868304573841
Co 9.972342753156928 8.565522121027215 11.442972690997722
Co 9.340033220421661 10.712587965029039 10.188628688103764
Co 10.408190555085273 12.0890739152471 8.386972832563142
Co 11.225109428906256 9.649793465881558 8.955431115913715
Co 12.668517372542508 7.773192880665552 9.292852597609937
Co 8.186562201290004 12.626503459139677 9.396519644631471
Co 7.841529001925106 7.50124500896087 12.584419421909763
Co 7.5511597005293085 9.086106986087719 10.902882607809115
Co 12.841796822555985 9.047911784289528 7.242702679387505
Co 9.870816737994781 6.324824475732822 12.123436492163435
Co 10.522335883271195 6.990514098372479 9.715747520311066
Co 7.0740849619181585 10.477074194033055 9.184186490660675
Co 10.741727085174 10.086446281912666 6.678235010963554
Co 9.007695779997807 8.74922051844113 8.89299337320177
Co 8.738932243259914 10.76145725056638 7.621474022668864
Co 8.339485926835165 6.934473075416478 10.378782149237773
Co 10.83244280055056 7.8188509137310325 7.545852247855444
Co 6.812998030509433 7.973455056992885 8.807677473010182
Co 8.644479205910281 6.661301230113159 7.9657539580366326
Co 8.838645739512613 8.569338987227969 6.540296452632873
Co 6.782256692560303 9.566204303838981 7.061768098518182
Co 6.8924573315096955 7.331935008650596 6.576481565875747
