45
Energy = -264.65898243 eV
Co 7.1518701453108955 7.8478394843385075 12.385532232433613
Co 9.420345489310789 8.353610201674178 12.897713675327743
Co 6.183072893512822 9.546333540011247 11.010138993754289
Co 7.803817035989674 10.169608589136807 12.690630719586906
Co 10.041698082203421 10.664067913300846 13.2629311905078
Co 6.90798737186655 7.3914565941154 10.093619651471233
Co 8.43220974308849 12.469233977384851 12.93670857988702
Co 6.8062385987998395 11.78326998496207 11.280848673350352
Co 5.582373913954165 11.40666193934712 9.026905809398878
Co 11.21194582637584 7.16532639311436 11.815859552967282
Co 8.971248124785383 6.6337304277887466 11.27783563781884
Co 5.763951483064965 9.041566817096939 8.804649689992972
Co 8.525324657353304 8.941099455979165 10.77131604045644
Co 10.86315596039337 9.517940663122621 11.320702322599873
Co 7.92150584518271 12.970231687766951 9.694192297545397
Co 9.21772437935628 11.375013026786842 11.07379236505079
Co 10.726307213058051 12.71158135435647 12.336451441601746
Co 8.54856348962896 6.004178864031669 9.10724647182986
Co 10.092011567269706 13.495199448056226 10.23461131251511
Co 7.6051385077105875 10.603091443603208 9.379266985253743
Co 11.641715610821246 8.846205787735892 13.494886876997823
Co 12.770858040749825 6.9028803684573 10.14379090480637
Co 12.312912810834606 10.936833164471723 12.557823233707099
Co 10.862235379656417 5.608991663011583 9.58567988760492
Co 10.343426792080795 7.78027849959678 9.694106665010972
Co 7.421670558083041 7.632760504045811 7.824577894082863
Co 11.669285879780825 11.676807577037026 10.399937257918099
Co 9.103860434026089 9.21147643727291 8.206732991483989
Co 11.588709078029709 13.115171032479784 8.494351491682892
Co 11.432204486122137 9.778187451703829 8.8179883057382
Co 7.053298434859397 9.94850817850196 7.1282726906031195
Co 7.623497013427769 12.167371572858697 7.5929489144974385
Co 13.059478203914319 8.767676480251756 11.600187756746605
Co 9.747857212303684 11.61448035112905 8.717061080370549
Co 9.822654740918345 7.030585629449236 7.488998733516705
Co 13.860470605588032 10.78283883733118 10.793909232658649
Co 12.056163005236343 7.562430694259187 8.060708928844646
Co 9.76048338245356 13.102870165402464 6.969322624756743
Co 10.832161305053397 9.017859859680712 6.5835822670997315
Co 8.583903718709488 8.5202216214826 5.984197654109385
Co 13.198115016126797 11.352226983721936 8.614598726573028
Co 9.199094961008647 10.828750889364246 6.448588418563427
Co 13.578733809320767 9.003041376638123 9.337377892370581
Co 13.074094426628415 9.524136794810582 7.082212788410503
Co 11.444987981752162 11.324527649157918 6.9829390484267755
