42
Energy = -243.69806853 eV
Co 8.672434004624325 10.272078071845053 5.403881687457337
Co 9.50319426400021 8.487629105559957 6.799621863812352
Co 9.35183077354843 12.649810117190912 6.071015458481945
Co 10.334805551787406 10.683473911736218 6.9047720767317795
Co 7.2463971865213805 9.289110365243996 6.915945243834027
Co 12.5536073926491 10.792563550799017 7.912008708406493
Co 7.283818029122881 7.749900391570943 8.59833079633405
Co 7.989581812895149 11.382646286588026 7.3931023421333215
Co 11.2416708020644 12.854912211344036 7.382271841942688
Co 8.819374101989444 9.645405699099362 8.66042663552376
Co 9.536029487102923 7.436019501274866 9.09268938798493
Co 13.25357066146007 9.103710217865554 9.580325850245492
Co 9.073098995748575 13.19839279530784 8.394321405034068
Co 11.147602403652503 9.067414423870733 8.644742819612441
Co 14.451383142649862 11.006521018082267 9.352982873064663
Co 6.613132228868102 10.057452211573443 9.155506012460236
Co 12.776108674233505 12.717501947704461 9.201318301723164
Co 10.812006316871855 13.834882247927036 9.758332495853061
Co 7.922993127816523 8.665626612252531 10.634617275638785
Co 10.554726773473215 11.52639637213207 9.133402989102022
Co 11.763272310529302 7.207029057301593 9.921712777641352
Co 8.283353856275498 11.532282488273536 9.966961814071125
Co 10.08696373428529 9.807988909894263 10.76665191682537
Co 14.344371325623811 12.420870947392372 11.103755844745764
Co 12.073907046391724 8.772503675542376 11.610408293834455
Co 12.233808289553258 13.388270325115055 11.509723450273098
Co 12.268678314254714 11.056377841173187 10.803905766387699
Co 14.119670192361752 9.980703390387253 11.701029577276259
Co 10.09432814590566 12.249315179779032 11.420094975122735
Co 9.928575394238377 7.552683543144038 11.370277182595292
Co 8.230772275943691 8.20737833047595 12.883519852235851
Co 8.33713644918765 10.482714272844822 12.1159311646531
Co 10.912960382407187 10.64173604823421 12.998819684871712
Co 13.13167462461495 11.67113382813641 12.947342125897386
Co 10.579081679317673 8.312934427535696 13.486098488997433
Co 12.83634044387281 9.430767640130068 13.722822429097901
Co 11.17394793775246 12.947751756403447 13.543987201660931
Co 9.029865923294247 12.161657008374103 13.598569698673414
Co 9.04394265669078 9.873389669150047 14.286686164272133
Co 12.152072741012942 11.504771574340161 15.033815594090575
Co 11.089405210096212 9.53715844507767 15.377388319922204
Co 9.926736904371543 11.617366151388541 15.619113180539726
