40
Energy = -230.56792436 eV
Co 10.603036065208629 9.977813254667666 7.635495918282986
Co 14.405679665521147 10.710725072154714 8.586694484181288
Co 12.189526519741804 10.764061752432932 8.954880040419349
Co 9.280002174686677 8.583738668515004 10.66997127718152
Co 11.196311273675297 8.498030554987222 9.288479673603717
Co 14.37346439342879 11.312666310812249 10.779604902261026
Co 9.937973669873177 10.624627532876946 9.810862982578845
Co 12.88119785913094 8.982149990012472 7.7561561578681015
Co 13.155099918691045 12.812106831139236 9.28897157004169
Co 10.686583632092331 12.652620012001444 8.89284087163948
Co 9.566153554333328 14.710899231833558 9.623103897583661
Co 10.837011560842969 16.460199525364448 10.960789045434987
Co 11.669500079538139 14.387255218524537 10.270805424025156
Co 13.426715888931033 9.15637239172091 10.126202712983332
Co 13.550932581726544 13.449587942456116 11.481969215100694
Co 11.367934770830347 9.362810408993989 11.378057934236159
Co 9.376453559228157 14.982173073222162 11.943940611117313
Co 11.822904368606087 11.747332572565675 11.135840065017682
Co 9.665264832354806 12.809864018027287 10.989355886335634
Co 12.87387555443394 15.692874955526243 11.854616261183287
Co 8.23830927059666 12.926039634805216 12.71122633723028
Co 11.09664994534397 15.959132017083794 13.30062259703953
Co 9.763776057493562 8.552960917485963 12.913117189776392
Co 11.331259143414401 13.830697256059556 12.5158241976299
Co 15.543999750299559 10.164680561097057 12.848448839289388
Co 14.87239451377988 12.320081451163793 13.016880258002777
Co 13.354148258351747 10.058713458441193 12.390141628348596
Co 9.41318777825305 10.65313484434175 12.158923481496231
Co 9.525780093727555 14.298618475191123 14.154779304737168
Co 15.562590725538143 13.833707685434574 14.571729456995744
Co 13.508677222949698 14.40569919037323 13.690222126973516
Co 12.597756441263986 12.09305928615293 13.464953573471165
Co 15.787333891248975 11.38286612589266 14.908464985698286
Co 13.827997959101074 12.639341440243546 15.400082378853643
Co 11.354261241081112 9.984161544307883 13.70386680069179
Co 13.717401223437726 10.358141878641781 14.723613332616608
Co 10.187309020919598 12.119488377567583 13.744829407444584
Co 11.647137221999145 13.801393751518429 14.941918369097786
Co 11.68078334921307 11.539319732703738 15.566470524432319
Co 11.996828784540451 9.274056869088179 15.718450094526144
