43
Energy = -251.26246098 eV
Co 13.465690799017066 9.671868473013829 7.506579975112927
Co 13.133067842639624 11.796326001760502 6.68444084044576
Co 13.165880584000078 8.309685436012506 5.631396875635595
Co 11.778798800122727 10.071001118809132 5.916755447239093
Co 12.340024518248002 13.434856846491083 8.215809165839458
Co 12.629508247065457 11.294875745001995 9.047487292132887
Co 12.86156682176299 8.92081473047701 9.734702054211532
Co 12.818049344025905 7.477985365282842 7.763285172364653
Co 11.793139563937926 13.036387017640566 10.452337657493091
Co 11.078873728080655 9.460047807802047 8.190617252627103
Co 10.944254417105505 7.8804136793524195 6.47076040126092
Co 10.910682660236084 11.747699812812627 7.436728112454006
Co 9.502440839080453 9.926709561877761 6.436479872973738
Co 10.055406035441372 13.3741103180512 8.905012690488075
Co 12.213591783171797 10.61107666516586 11.297321859104061
Co 10.384049477687945 11.24159709460648 9.85394595320338
Co 12.908392203981142 6.679710648486873 10.030558678886582
Co 10.603850940347636 8.916380856909976 10.650990703942291
Co 12.451083705334216 8.200407532522435 11.970667577942542
Co 10.861825763536443 7.185930194895481 8.99382980077143
Co 10.567684809736376 11.999177040239173 12.24328607429497
Co 9.654796013059615 13.833898328894882 11.175699738475446
Co 10.943588234530967 7.39592049891091 13.553197385078768
Co 10.924148898733133 6.616476902366263 11.285956124289823
Co 8.652879864245477 11.530028915745882 7.962027642893887
Co 8.967923837748335 8.034390726844387 7.703267493574051
Co 8.639739424115968 9.641896138147626 9.369177867717092
Co 8.243670569175967 12.222817704530746 10.17638929735001
Co 8.757472991789824 7.332883201916903 9.995466887955011
Co 8.180205151406575 12.545381701414273 12.52364010737403
Co 9.203027177058127 11.128416815154681 14.019827885326224
Co 8.86892296443115 10.41635742876962 11.70659026688322
Co 10.727129005529761 9.619394661893233 12.984683233528846
Co 7.325328053815706 9.696412564761427 7.245378739160207
Co 9.18050992160387 7.874329875857486 12.241813601614416
Co 6.581968042922001 10.741666551938664 9.229377720194465
Co 6.704940588573733 8.304486526627928 9.064017376087465
Co 6.569870006799719 11.102732541005373 11.58245401875866
Co 7.2042120455024135 8.74174339924575 11.264229046570222
Co 6.80045397287166 11.276993683536677 13.930711120893585
Co 7.943507769494047 9.245326022428777 13.56511731716475
Co 5.153021375394325 9.441476798286198 10.510271991589637
Co 5.720275667577198 9.435361525450894 12.893166140036016
