44
Energy = -258.16379602 eV
Co 8.96136284694027 7.1422843072419 4.078680746413806
Co 7.354130755156901 10.802105207091588 4.7970500117726935
Co 9.558820289838845 5.428523073726077 5.5562944679070805
Co 7.141429014665103 5.663559115117778 4.469964737527269
Co 6.781867613046174 8.091905911527808 4.2588110160326975
Co 10.462677287971227 7.6143263719204946 6.053762000831351
Co 8.822564757771085 9.122589624818627 5.289362357905208
Co 5.1461330462648345 10.092839478965686 4.888243185621218
Co 8.479772212672339 10.771900876233932 7.064400435214571
Co 11.605259176113114 5.705429318317971 6.845631686335363
Co 7.839056987805225 7.001304691011899 6.176114035757024
Co 4.844026152710636 7.846770494714439 5.656465483396403
Co 6.083895572853565 11.38662908989869 6.80142059893211
Co 10.65582817324562 10.013925969735581 6.398713699923829
Co 5.706971179209521 4.8313971950466374 8.363162283092404
Co 5.739301194964199 5.833441006024836 6.291219222927842
Co 7.740786817428003 4.731894688798582 6.836336211752236
Co 6.656720947154831 9.146158132078051 6.291644545288335
Co 12.433644842088466 7.83815396963186 7.164710862712015
Co 4.583577628951154 9.613914911577835 7.3523521308536255
Co 9.93710741278672 4.118815660624736 7.668900561484409
Co 9.60533670543909 6.346513802755761 7.823957149986866
Co 5.698692116424834 7.512789515070663 7.932342701286001
Co 10.737563744316304 8.772761618565168 8.340253855931838
Co 8.427485322728456 8.45892780517911 7.900686192975148
Co 7.908000488434858 3.710111164476588 8.864646355388775
Co 6.5873772389107765 9.889409496892565 8.494007223624797
Co 10.29412980651692 11.057329295330408 8.516311169083664
Co 5.146894296815986 11.466024054465557 9.14814238174693
Co 7.519817973189273 6.09217168096006 8.859325923165144
Co 11.488537744879258 6.660902583487393 9.039746463707603
Co 7.54147141927442 11.900044575033144 8.910316373342646
Co 6.683213488915891 4.548597913157239 10.568193980250463
Co 9.44591142035445 5.155935651520873 9.886421899764194
Co 4.897104496944387 8.949871037751194 9.776262616906864
Co 5.485743460971268 6.55431019028026 10.157304694039743
Co 8.710249171756615 10.042843409487887 9.768811755854424
Co 7.103439550472143 8.173096163320297 9.952258018049863
Co 9.436549478374127 7.49972602286072 10.019632194235514
Co 10.685627756789865 9.348352026358484 10.580760538403235
Co 6.5276545947571885 10.316914051068913 10.804013383088343
Co 7.726090714466213 6.4561787286380925 11.338860581979963
Co 6.075026477142872 8.242867668768568 11.958024939817784
Co 8.436344170154571 8.749647998133653 11.759674873356508
