41
Energy = -237.5846912 eV
Co 13.638119338313686 7.604237016420421 8.617558652103902
Co 13.148097362827958 11.215087627623944 10.102513864955654
Co 12.497641925146727 6.5625839399140675 10.333149257728662
Co 13.400722554736928 9.915378787478772 8.21888715611445
Co 12.959778909069346 7.8089546214367935 12.256453985492485
Co 11.919927212489295 6.085714304218552 8.159945716940978
Co 11.597223693433762 8.405882124537268 7.871530748154953
Co 13.351542213423858 10.153468758323244 12.115944877545672
Co 10.231807969000414 7.148991124527358 9.326420339195476
Co 11.222000291994078 10.585686610983513 8.707063127041193
Co 10.784877648753541 5.101192838005856 10.230560447253524
Co 10.706957367811182 7.089717585322068 11.687276611488596
Co 12.289994143251448 13.372602678283862 9.893948575757596
Co 10.912773215539495 11.577089098268095 10.998686574578132
Co 9.325081610962208 9.126296738978574 8.16492114137619
Co 12.777900273567948 12.619925365509658 12.043527728646609
Co 12.614302536636291 12.209528096901966 7.893893389803636
Co 12.40143225214675 8.937184773373465 10.197827598989667
Co 11.87196989260406 14.711371480678352 11.795024561994333
Co 9.958616144419745 9.295403142532413 10.463767913993651
Co 10.47163901711408 12.90620129825544 8.4345280208895
Co 8.802217101746374 6.1131519938141015 11.002970751216745
Co 8.076957888410789 7.992203902515965 9.930672746717883
Co 11.189061008849325 9.231941502426825 12.449014629748476
Co 9.65426433546418 11.2064574572963 7.031306378421516
Co 11.650154219095832 11.18410404246245 13.398671358138685
Co 9.24908998840169 10.689946058539462 12.788015935057194
Co 8.930452162506844 11.254535905200536 9.3211010321747
Co 10.478408762247401 13.144134661547287 12.789334524180957
Co 8.889202527004294 13.465955011631698 6.903082976129587
Co 8.478153015535455 12.497021802507383 11.338900402700867
Co 10.12419511140301 13.917449070723283 10.549462181881132
Co 8.824143524931518 8.339604751412255 12.24495822671174
Co 7.102093537105098 9.847780425188647 8.729321117523435
Co 9.944045990504545 11.788390952849072 14.783761519211179
Co 7.439952552094752 11.858731113568739 7.608288197318624
Co 7.729123740874598 10.053779752093485 10.98819410873436
Co 8.293725654282367 12.687039174816777 13.634377844002213
Co 8.215206866386245 13.516621459393807 9.130716007442585
Co 6.664852756496918 11.897018704107731 9.966915703008395
Co 6.7506952168818986 11.450035779796634 12.465905603101655
