43
Energy = -251.08670961 eV
Co 9.507167975971557 3.949236056193677 5.923724739044586
Co 7.966574587284712 5.388049730772054 4.5825059646503234
Co 7.246829597631862 4.1429612148270465 6.554783192014564
Co 9.034628067684205 4.31800880739631 8.299892781780091
Co 10.1870466727054 6.645785878163842 5.017102105167384
Co 8.676168413409457 5.925975612819598 6.61205850855062
Co 10.89828892984199 5.565855560824294 7.29123822056075
Co 6.323307433304465 6.4458524211181425 6.221095785949434
Co 6.950875556394477 5.654530777058305 8.475308066312428
Co 8.04873962972758 7.7834551925571 5.116031119240749
Co 10.84514060602426 5.198084296068131 9.667592299745165
Co 12.124484487054401 7.235862218977737 6.33123826385624
Co 9.302708759061671 6.604891531084246 8.800812270090722
Co 10.134582073676071 8.04237075729066 6.9431662170962625
Co 8.212267982689097 5.604814507873717 10.532628426859256
Co 9.939066361649324 9.110702366126114 4.881500086714785
Co 7.681461320815969 7.731539919135719 7.553279196730364
Co 11.487252062498525 7.502620830587047 8.769300277334292
Co 5.478446631020105 7.674644542719736 8.317757317526151
Co 6.598967992424652 11.232875875289881 6.607977667955589
Co 8.88924333082075 11.83646817617487 5.916303586993063
Co 8.280603980366934 11.259609862456355 12.310186858440183
Co 7.827108205059544 12.67296699450995 10.429090573874658
Co 6.07251179762026 11.447957957305558 11.511255955681978
Co 6.914380699175837 9.15646100775423 12.065386741570293
Co 9.888607536662112 11.202151760525444 9.996377102597638
Co 7.692994798100271 10.41611303142492 10.258093055253203
Co 9.288557156498433 9.28009658580752 11.559626362894017
Co 5.941958525665127 11.61077070965706 9.13364887970049
Co 5.496443180056654 9.33218446716552 10.173063105625051
Co 8.316504420147304 11.647090584767458 8.234961073626394
Co 8.192336292975476 7.220937031494753 12.216113383288663
Co 11.287865755724384 9.30320891321281 10.340090671294202
Co 7.609670701904367 7.968210085589679 10.067652571102743
Co 9.439822925812964 9.04885092336332 9.013153744396064
Co 5.9030235790273515 6.606465128979634 10.40217140961227
Co 10.428361456807774 10.678267593903229 7.680385371824888
Co 6.821221115190813 9.65409668196923 8.28320003601981
Co 10.13467964275354 7.2231972455209155 10.829445215512202
Co 4.681285428970412 9.998081855628511 7.781812355377383
Co 6.113716705390167 8.893866400188209 6.118639669414897
Co 7.693501171563128 10.143820186712313 4.627903221708738
Co 8.55762378806054 9.757036054229626 6.6684738822353316
