48
Energy = -284.57102604 eV
Co 14.569754627768505 10.156965332922008 11.243571991285016
Co 12.608672906877915 10.926965046181717 10.053304885261296
Co 12.574913254746836 10.3721892203711 14.938607567793692
Co 7.096050624212315 12.347034855774085 10.229637529122655
Co 13.830166803815539 12.169375530478824 13.953868975089094
Co 14.50210627102135 9.88910045535861 13.63748819371096
Co 11.450317997958706 12.59127548252001 11.50505900611553
Co 11.294993143654994 8.792237698334278 13.592349149553067
Co 10.28544561856598 14.159388242908278 12.89068121756854
Co 15.788464137953415 11.960843204079955 10.25037163291302
Co 8.177524696925197 10.165459786333189 13.624029653211872
Co 9.291116194250169 8.536952554608003 12.231544469956168
Co 9.024078757721682 12.642052471150468 11.494795207071418
Co 11.46237345826614 12.86932647589307 9.087991584863827
Co 15.085887925861686 14.241652879613378 10.49857270155043
Co 8.216560019313613 10.729002703305236 8.832953748781266
Co 11.337450709769803 9.391422498325152 8.583859340817614
Co 9.061552606978113 12.95251232226758 9.045792936234317
Co 12.589684400346139 10.624006205107827 12.552484765497335
Co 13.859435664009101 12.75533727089342 9.067863880686781
Co 10.199268198673787 11.331704104986954 7.67280269003242
Co 10.167645172772158 11.021586720870063 10.052956690782812
Co 9.023025022597086 12.371097609178916 13.952168512736504
Co 7.079273895758573 12.065510760900372 12.625826185837578
Co 13.313153440607707 8.664603056404031 9.822207772784084
Co 13.886760863473398 12.462416566828079 11.512102273664407
Co 15.77335783828397 11.671942485799491 12.651011003022601
Co 12.712672015355519 14.075936623774075 12.933714832425194
Co 8.135173431379577 10.409812852403862 11.225489314808947
Co 13.959874877400232 15.755746040193682 11.909163073998446
Co 7.934076093017716 14.243424607124057 12.843678605585007
Co 12.724005469586738 14.36721173174087 10.486337044825374
Co 15.076512358763773 13.947288042840352 12.927415364326992
Co 11.427455375834823 12.288012976132183 13.92906217091357
Co 7.94323379319751 14.518829565233718 10.536425915837686
Co 12.628807565217095 11.245138873420421 7.672957707947755
Co 10.147111491250735 10.472222039831681 14.920707553921616
Co 11.54386915504818 15.846179841840991 11.897961551752259
Co 13.290339572329907 8.375874627259808 12.255667890904164
Co 13.220692294894306 8.16374351805193 14.602880415164122
Co 9.310022317220373 8.822087813484142 9.823800443124291
Co 14.537098374769311 10.470739399712274 8.85226444189362
Co 10.299888987634455 14.450098798896398 10.515250589430627
Co 9.301006239600035 8.335434952854857 14.569562804198847
Co 10.14872365134914 10.721443300274618 12.538592362026145
Co 11.323438222751104 9.031189764132135 11.090729801546395
Co 13.295781669136847 9.019277851132314 7.479736759631984
Co 9.348864228584029 9.16758870679647 7.49227193137146
