45
Energy = -263.8447482 eV
Co 6.920457521955239 9.135098428288105 7.063003135775614
Co 8.68038619133388 8.388353382522716 10.584059868402326
Co 9.90913935406253 5.442199708831777 8.842185189084214
Co 9.018982390014028 9.546949423767582 12.517159536648386
Co 10.45957264983034 7.709469584166719 9.020288933737978
Co 7.698686119064769 12.23953618232279 9.273674985510064
Co 8.256527945524812 5.8479688012395705 5.399378408188314
Co 8.09418212194972 7.525864855830377 8.340450826826336
Co 10.938437213618265 8.979231839614902 11.052218667558344
Co 11.818240341886057 8.493144718527132 7.240269699986167
Co 11.250396655088528 10.640463679035554 6.353690251806647
Co 5.1518165834375464 10.688053444575962 6.6375752170165505
Co 9.827748565110383 6.892382639101362 6.708932241746789
Co 8.224170171126095 10.005934659037482 8.902934314931764
Co 6.790531714478056 9.940812111547416 4.888536086024363
Co 5.646281727496964 12.619581387112635 8.025576986307863
Co 6.5399974970996375 7.444695316149319 4.269419405292705
Co 11.848783569525422 6.170202369566558 7.528457396466519
Co 10.234806544672894 6.619468826840004 11.118724791194204
Co 7.181496742610991 10.582043239678516 10.969239833412756
Co 6.382160874651931 8.434787332924234 9.872224953479872
Co 9.515511807215313 10.886287363395152 10.567894041267836
Co 12.440466022996908 7.338440581030471 11.70809169079552
Co 8.04180042395962 6.043806181072556 10.191691081131042
Co 10.00934330893169 4.631338936813021 6.670323983768312
Co 8.314990803657661 7.027469915339413 12.416867584919702
Co 6.788085754719342 8.696825049402435 12.189409303476738
Co 9.586842182819273 11.59776191895185 7.828065308667602
Co 9.008506625007461 10.613109898454807 5.448259279639109
Co 10.999773103502742 10.06762639610084 8.867416977401076
Co 7.399969023696577 11.425396695193164 6.964645746735464
Co 6.118652957725979 6.60608276833586 11.295349247832736
Co 5.683863199861216 12.271392541520608 10.366038583943046
Co 6.48568615342042 6.852371885278119 6.539684707465761
Co 4.969118092138301 8.320724693898876 8.006153712903199
Co 7.900798421606077 5.290573912286958 7.654149438205257
Co 8.350310516828902 8.244112026349455 5.333408957610738
Co 12.64660008480547 8.331326743903228 9.551135566650494
Co 6.054553378387089 6.343470364814741 8.84786219668145
Co 10.474299495894039 7.836835442679996 13.080579260561628
Co 9.540149273862474 9.229759402774441 7.198505580492408
Co 5.846784922987815 10.501639236728982 8.86708108905846
Co 10.660764192969408 8.7170970682443 5.170724323151736
Co 5.0770139091083335 8.546965152048513 5.670653205505707
Co 12.050309985627432 6.07034003096877 9.795004539004468
