47
Energy = -275.81377728 eV
Co 8.130710514835794 13.530166527506184 8.672117815914756
Co 8.279768278050932 10.60693099903108 13.049534524085582
Co 12.188131843339285 7.431774266390276 10.179233839254293
Co 11.623336430746402 10.064277966711064 9.81863784391666
Co 12.237641677133464 10.419292643216364 12.18131619126438
Co 10.604056366079874 14.313410807353126 8.285768417475975
Co 9.611469427204879 13.952071393050577 10.359473277066062
Co 9.34343819345914 13.098264091279002 6.74499668802191
Co 12.343652376187572 12.963943710278873 8.949672773872022
Co 10.096384941275396 8.187874747491453 11.093228104885691
Co 13.1197985143232 10.951140779174137 8.174408644988766
Co 12.774053213708962 12.708359287045875 12.687524680820372
Co 13.435067169910969 11.590364748123795 10.531817561806857
Co 8.9110194970958 6.235200816355355 11.658362026378349
Co 6.671950297481732 5.424630867633859 7.618610067434726
Co 12.213676304300675 8.14631365590653 12.360961097541136
Co 7.9930365162925 11.676375690565399 10.19754670754856
Co 10.323848630025513 7.047779759162427 13.45992823723217
Co 7.698600935551885 9.4240890572689 10.991543179405129
Co 9.428567005596406 10.890848432068237 5.96393189307788
Co 8.880506970656004 6.263392620880436 7.648192794684438
Co 11.303720302949582 5.954189421175986 11.72391734849958
Co 10.128656161592268 6.013063159704959 9.705730987072855
Co 10.87881267243688 14.106225131620812 12.572846041285029
Co 12.83879218469654 8.659782108708358 8.312122602091502
Co 10.10812889159567 12.050136394170705 8.879550365070452
Co 8.06779432332438 11.338851964941162 7.764733863414732
Co 6.008018727009106 7.060020076600344 9.132121853692391
Co 13.648944713042507 9.248682188415108 10.576275695462666
Co 10.668584700935192 11.768532396595342 13.349086519009049
Co 8.999574934090898 8.811191174605646 7.074274685443517
Co 11.252453600922692 12.40810891925072 11.034432039176433
Co 11.016911119507354 10.070139327167537 7.458857069927455
Co 9.252636074914523 9.822131219352828 9.20280589995655
Co 8.921226633436627 12.707870807515446 12.146731739202984
Co 11.821544348227771 14.613782888722715 10.47196629631638
Co 8.35764398067061 8.228137080691853 12.87439108215662
Co 6.890012315791338 7.187282875249317 11.300362322104808
Co 6.892649045013166 9.531330385954963 8.69772469945718
Co 7.015226864040249 7.669982294325866 7.1703729985015885
Co 9.816790761632396 10.604413461490047 11.357227717625195
Co 8.237192537693588 7.683502112787068 9.356394296964659
Co 11.47905615515133 12.238812913907 6.8730140874255685
Co 10.35460689456671 9.400943335112032 13.28774023005871
Co 10.607679225889965 7.929952885187409 8.525689112405463
Co 7.751583752035693 5.464343431456701 9.624643727712145
Co 7.1365036440379965 9.865548847258708 6.2636400217527175
