48
Energy = -282.86538372 eV
Co 14.528371276247286 12.471914156287975 12.222277403378362
Co 14.410598023328587 12.1605784679967 9.717205474717796
Co 14.392974861057919 9.85423596831188 8.889760124107262
Co 14.166671811036302 10.329679134157074 11.210854999086893
Co 12.262706766085246 13.345946605606551 12.981231592888728
Co 13.542793563656057 14.205833990209785 11.013422734537633
Co 12.835569600497186 11.003710855518843 13.172707320456631
Co 14.086451688717526 8.051888005294488 10.594794547824952
Co 13.171451141784583 7.616167705085161 8.607964620070277
Co 12.532068192676487 12.109017546135846 11.035248458767844
Co 12.772386634757712 11.417165782314019 8.201004585958142
Co 12.744471072990002 9.323451331154079 7.103283737929645
Co 12.549930725300566 8.811492308988626 12.147431586058453
Co 10.761759840685059 11.742101897987059 14.014270908064457
Co 12.203004202222633 13.485411073122712 9.091907694220163
Co 12.291983929611332 9.540845238128364 9.845619444173089
Co 11.223224805956672 14.324247546819102 10.993121529085801
Co 10.23952594561048 8.205878949722853 12.198360969132132
Co 11.435634716887483 7.380935292963792 10.408208906639954
Co 10.917216802346802 10.480898597388636 11.859456071708085
Co 11.131951178341943 9.360819242582009 14.021007258957592
Co 10.976232064704869 7.919453851055481 8.1186723204356
Co 10.755425488131758 11.617159217247837 9.70725516531602
Co 10.698588764568253 10.200790993330937 7.851844735374466
Co 11.567883019760265 11.030813217264996 5.917504195168306
Co 8.372437129871614 8.021645575355652 13.616555492707969
Co 9.850856200047472 9.287539142209218 9.950258059782378
Co 9.250599480536044 7.111484903478927 9.343822509282866
Co 10.089295956593265 12.734071455764045 12.095096480666733
Co 10.576912724929109 8.896116449303792 5.947397236105946
Co 8.604416262408384 6.6992501443557 11.49378952709369
Co 8.705364610067242 11.437437098101682 8.319987063774908
Co 9.078712002926695 10.188818798232525 13.295928461625408
Co 9.487608884527056 13.451700696535552 9.55588638650579
Co 8.661495076201632 11.293703118385569 10.894543205719811
Co 8.042342433643126 8.96631469518818 11.45739057321002
Co 10.702311344608267 12.584078778196297 7.520242076911014
Co 8.63480383394602 8.964782156704137 7.872643358176902
Co 9.217744267781814 10.772492864828996 6.167835383162745
Co 8.017014377478983 13.652597645962564 11.38100456532925
Co 6.515274601834109 7.419695739407565 12.334532184543772
Co 7.09438240226768 7.703153739761969 9.743080128126433
Co 6.7531634283823605 9.843196857434117 13.169977636352762
Co 7.202741340765199 10.03277199465218 9.462613125021486
Co 7.915895507261231 12.079323304483195 13.08815203206263
Co 7.119837207578567 12.549546099800546 9.559534790204763
Co 6.39425585786222 11.412541028026581 11.43557337026711
Co 5.705101773192494 9.209207081900143 11.09501910809245
