49
Energy = -289.87365691 eV
Co 9.116686261720195 7.997488843701691 4.946476838982262
Co 9.348375540297488 10.430046503155179 5.5263917861854805
Co 7.072033946842937 7.061796237183794 5.3082700897418045
Co 7.263966094407277 11.196757275436989 6.085029091502626
Co 11.421643505217308 9.295525943547382 5.225789555714404
Co 6.114626747531059 9.315927068680644 4.988959106731876
Co 9.0674465125841 5.5348928433131 5.34481376969203
Co 5.345858153783998 7.809297711054894 6.7169881991819995
Co 9.313522212334677 12.596344402436387 7.137767104423514
Co 11.002921083531641 6.9244321060656056 5.949397661443575
Co 9.962507643016778 8.724884023653372 6.9423383233323515
Co 11.120366842233949 10.837054766390995 7.0273681569701
Co 6.526038707201865 5.577512715923799 7.043691513038034
Co 7.525648520733437 8.919142993560508 6.737336267500918
Co 12.318832257444305 8.603423250737348 7.36429690825424
Co 6.68952018118438 7.339611885612947 8.597818756197132
Co 5.4520934090017565 10.120557096242832 7.168002956751046
Co 6.762069677103001 11.939753791066707 8.202975458677775
Co 8.368916698861627 4.510136363130123 8.076894978021105
Co 8.789694224781488 10.61414434289564 7.956389296513749
Co 10.500341389583774 5.092772156168001 7.271245040711195
Co 12.59184244716794 6.328797129229302 7.6187065475961155
Co 8.631574618977211 6.7029179718079535 7.197762226027218
Co 4.607726824034045 6.2550179570042355 8.428341493908894
Co 4.743662036048912 8.645586155802901 8.955034033708081
Co 10.737309445433533 6.996338702099754 8.715096037391382
Co 12.549542589849324 8.157898308031525 9.696535736463222
Co 8.747878669857075 8.372465193936453 8.89384229661938
Co 6.842317351293914 9.739691452568895 9.09019079824322
Co 10.779392794923085 9.436541872347815 9.030469271115507
Co 4.9189834406261435 11.047620285172242 9.402043195475855
Co 12.807145677076674 10.414213684813959 9.060069166678918
Co 6.503267060478871 5.155148911876731 9.459715078114826
Co 10.422421711448647 4.7927892994892645 9.528039405229707
Co 8.607794562260564 12.540964260319544 9.424598751784336
Co 8.670032208663155 6.204679185483751 9.766294770740405
Co 8.999259578421778 10.1793672884415 10.476989080642868
Co 5.476184753415026 7.052473948465364 10.622355865174328
Co 8.323110730456444 3.9890853550643155 10.403954412273503
Co 6.969809436504529 11.45367362730417 10.712500538988811
Co 10.76082134062096 11.755896857790198 9.195328836491083
Co 7.669421584141756 8.089804352908892 10.963059734696698
Co 10.118538555834363 8.01010472767342 10.811403426661528
Co 5.650617387492195 9.419519411157557 11.101212803267003
Co 11.328623771058746 10.37943169822793 11.026247913888897
Co 7.270259728128767 5.871447110393053 11.592859242822493
Co 9.630328348944024 12.0885651396692 11.439545242648471
Co 7.627631359822583 9.934588836596308 12.342791378736187
Co 6.23803210651483 7.850508685256853 12.733411583935068
