49
Energy = -288.93804223 eV
Co 10.493448473445541 12.611433960091302 14.281497164902476
Co 10.907343926209245 13.585014527848852 12.14942722488052
Co 9.126411566627683 13.519704745640743 10.3577386756572
Co 11.245195390229858 14.100455322211689 9.853227528590809
Co 12.385591936394572 11.929242456608103 15.513780024619214
Co 8.486014999820693 11.525988061952265 14.481928200148069
Co 10.689786371766534 14.371142966591254 7.601854062111394
Co 9.006380909539594 12.131193174339595 12.225424883128213
Co 10.954651325667097 10.753768927329416 12.867636385698095
Co 12.85539172378251 13.340798226696311 8.388061027059711
Co 10.70160312940515 10.424048386142521 15.13587691060674
Co 12.622186739892708 12.448497547479999 13.263098975288449
Co 7.18429698314014 10.789747938973374 12.595867592957418
Co 12.967592262288269 12.96097524097916 10.88614094517871
Co 8.633191255533077 13.312869326603504 8.116533560845191
Co 10.96940317617113 11.698519522542439 10.715282363866537
Co 10.764956165574823 12.174714983266814 8.39101227244755
Co 7.074734885112195 12.205998443054925 10.673685767168374
Co 12.877215441910684 10.180609003546747 14.006488514826852
Co 12.391687899988392 13.806333442754005 6.170866102833243
Co 8.683493942971582 11.279449424646115 7.140331905637309
Co 9.018682412040867 9.502232277686632 13.668887130073468
Co 10.463221628867036 12.508515054320638 6.103047164124799
Co 9.168387978804608 9.735388472643931 11.311083143369633
Co 6.779259581236018 10.963812745584008 8.413756429702481
Co 7.326779663608148 8.46422925989222 12.484343726094794
Co 13.117693701083418 10.74969758523347 11.69390402959941
Co 8.808636263615698 11.319502812909716 9.540314938914623
Co 12.468507431055102 11.538028772888273 6.900427254102217
Co 8.584678408934744 9.21603948160679 8.349006805040435
Co 6.9694611445233345 9.854779566019046 10.426651703964843
Co 11.235237625802334 8.494844191811016 13.558305334000638
Co 10.62822636190659 10.099123683360133 6.815890043453499
Co 12.857567549365461 11.178324469082487 9.288443151258566
Co 13.374819553419607 8.41077845580072 12.405526911932858
Co 11.518159906227698 9.06457968504625 11.229317401205732
Co 10.784907068846909 9.77155645635134 9.147382656848459
Co 9.512191358591192 7.577436311973095 12.2553906459142
Co 6.431672883906872 8.513485357163253 8.660385163393517
Co 7.696603676974217 7.631386938702811 10.391963655478534
Co 13.689760877249212 9.094301852379122 10.073497441549678
Co 11.72789061520308 6.7996586178417235 11.542635574444526
Co 12.669539537434483 9.316253098472316 7.826293856284424
Co 10.529172881795182 7.91159654354868 7.599175305001516
Co 12.202457818318422 7.457736521193992 9.336811754646774
Co 8.490692108409924 6.883815733470486 8.336616987267035
Co 9.943214504911293 7.6379789505020454 9.988765884063401
Co 13.929052799166532 6.881957126221753 10.733871931616484
Co 10.650752617872547 5.8702608136380965 8.700350352843559
