47
Energy = -276.60554757 eV
Co 12.88306961522442 13.811060954113568 12.59325817768418
Co 12.26569010550967 11.81318065875281 13.764736552138984
Co 10.577136814068389 13.625564140283492 12.890563714298755
Co 13.976301674702789 11.665565856470428 12.227060722134599
Co 11.349586742819746 9.851455770850702 14.771043972709126
Co 13.49206289994123 9.654345363036816 13.337919152921167
Co 9.98378760068709 11.421397962581066 13.577211929270737
Co 13.6120372783684 13.206719842470843 10.492739608865152
Co 11.39013562551201 14.217727639994834 10.730411854207285
Co 8.818093863848517 12.475234822031153 11.836735943098175
Co 11.618280288113665 12.013493067926131 11.471454958873405
Co 11.3440344076156 9.902776387760255 12.448817165407254
Co 9.156700936485752 14.531296026711827 10.933723126078048
Co 9.82693684068541 11.80036013053798 9.816183338917455
Co 11.873032033636642 7.923049375955077 13.617037595804858
Co 14.85168158156821 9.654172732478193 11.411741642083554
Co 9.392800958540006 9.01003425550644 13.556861610951609
Co 13.370796505489848 10.822638276810526 10.145182713689668
Co 7.776431707926763 10.947789866784266 13.44448442819491
Co 11.954939693319908 12.577144370435137 9.048825543795381
Co 12.875504049594367 8.498481913353734 11.314096961741223
Co 9.977330463174475 13.861014682727765 8.803032310166433
Co 7.775880924903055 12.936790339740542 9.759777858566656
Co 6.9098593079253865 11.170240842435764 11.23320289065222
Co 11.235470869765932 9.80200857907937 9.982505523186886
Co 6.871916049126781 9.06977193019044 12.682498179058436
Co 12.366729340598306 10.611257659518767 7.973594126548599
Co 8.959520491566193 10.029728128044443 11.4914566698283
Co 10.85443010517434 12.368446923513735 7.016878956947175
Co 13.343961916737056 8.750003140091994 9.030137712190216
Co 8.621418833272518 12.335950073514198 7.640814956318232
Co 10.586854146197453 7.776737038097326 11.774996122649243
Co 9.896525255111161 10.335967688389562 7.883851038775607
Co 7.837175992152841 10.598783453111484 9.164062633191511
Co 8.322046903181942 7.5790683457000965 11.786105926452768
Co 9.337097863906303 8.425329695719956 9.682043312993294
Co 6.9920789935041245 8.838736857053453 10.366677536825666
Co 11.420107493837229 10.008942602099646 5.983207759907109
Co 9.477011626269487 11.099834064791157 5.587523945063153
Co 11.30949816310459 8.438837997137611 7.765707713266935
Co 11.548658848801498 7.275987333561559 9.69279984936888
Co 7.684703648509018 10.359299582413566 6.795518119890979
Co 9.698291583072919 6.092531749250449 10.395385034747596
Co 7.754448397925959 8.416225955384126 8.015788464157541
Co 7.658135563842244 6.6837149546558035 9.573654154438383
Co 9.428123940546724 8.65477928710926 6.349249539563844
Co 9.575019084575649 6.887858712263941 7.970775982821914
