48
Energy = -282.90412532 eV
Co 9.52189932885865 9.33495345269005 4.164789437625223
Co 7.533809801270839 8.150634067718993 4.073927803669547
Co 5.283787980087346 9.035993806562862 4.673286787365231
Co 9.827051201727608 6.917474906036711 4.756461504572786
Co 5.447962316585454 6.650661795280988 4.910417139120494
Co 7.445694093126774 10.155049947892959 5.387745116977686
Co 7.6791530301147795 6.117087868263424 5.227902953794298
Co 11.239127097986009 8.685498353845473 5.660377800679885
Co 11.825309567535397 6.406854562725958 5.826509899411855
Co 9.681812336530713 10.689288764919498 6.091014624191954
Co 8.837006938430553 8.412723458865807 6.220336137288559
Co 9.549840613144015 5.050770566654151 6.2755518387934845
Co 6.608342985406422 8.075477319934475 6.246735293102152
Co 4.311800033082469 8.133412062093415 6.748952998082964
Co 5.5694403502803365 10.167805900382717 6.867478184565071
Co 5.522655281507712 6.1120572453652615 7.187218986913766
Co 12.073670429749969 10.54295267424887 7.010202409514392
Co 6.944288451542281 4.33534057884797 6.550371871995977
Co 10.361961495809759 6.891788518536863 7.417479755786511
Co 12.357421033347169 8.210069408647236 7.697120987245965
Co 10.361240317835817 9.296452475507486 7.787242967607292
Co 7.912496658086403 10.290079956731011 7.833716408189958
Co 7.861590963259166 6.275809028441359 7.564844192954778
Co 10.706231081500258 4.900048118271563 8.390942014496463
Co 8.54074330397788 4.148907783161048 8.221594694323414
Co 3.9667156749906405 9.296846829577476 8.722296025218595
Co 6.105409115072945 8.469152569203947 8.416279932511719
Co 8.615466246022208 8.047464563818476 8.707805533867385
Co 10.118149760509612 11.523134838131751 8.418790448180596
Co 4.6419915271427445 6.86013497197001 9.219571975085309
Co 10.8546917522236 7.703668716779535 9.633934741936317
Co 9.128339142065641 5.925531273277078 9.749774569898314
Co 9.602106755600404 9.813052789721239 9.89452262260917
Co 8.065330486554597 11.553474656336729 10.051317611131187
Co 5.840829150855209 10.717729825812018 9.214390691837014
Co 11.85462324970965 10.146264455968913 9.402604677080586
Co 6.420290379580815 4.933986528477033 8.998628982785403
Co 6.953960122278303 6.894339569252194 9.979602309008616
Co 7.3811332452221725 9.341812987843179 10.213185831495322
Co 10.51864889582145 11.531636129450918 10.984014062186636
Co 5.128027072921685 8.72645646562939 10.675737635262811
Co 9.060775581485213 7.819472669926133 11.258394112445107
Co 8.649959477992494 10.219328609109512 11.988302385021345
Co 5.355326045653166 6.503225945202743 11.503893428659213
Co 6.2758438243435455 10.623103126180343 11.722784951187998
Co 10.986394421231735 9.294645739575072 11.594763461242756
Co 7.770773719998546 6.008846062366029 11.882248531970026
Co 6.920456250071249 8.279076642897543 12.194512259238806
