47
Energy = -275.79340866 eV
Co 8.410953847351303 10.404372898053794 4.3064221304761965
Co 10.460619545910927 12.160962234841547 4.9237308342958395
Co 6.931827599692623 8.215216144225225 4.846439544774246
Co 10.993007163182872 9.816999401625397 5.235445843649311
Co 8.152754377910016 12.55821281386482 5.254242598584804
Co 6.150580000954056 5.932729321391136 7.119458327496202
Co 8.940625830472372 8.621255830038983 5.710827446501443
Co 6.933786684506721 10.281698340750236 6.127823035349031
Co 8.189264486307545 6.399790655270872 5.9886942309725795
Co 9.236813731211287 10.95313440843492 6.416975514810715
Co 10.839892183245183 7.354830842763814 6.208902920508909
Co 9.711078378080055 13.071316202742999 6.996614044104159
Co 12.593747215941251 8.934270289702768 6.82819570973008
Co 11.480810585894535 11.333869781928259 7.025645929548693
Co 6.709223098938651 8.145576864211309 7.1304406740022275
Co 10.489083264788295 9.278119399784954 7.480702544938075
Co 7.5329247713693475 12.03155789560745 7.59395068368683
Co 8.167751524335724 5.129622680734291 8.036057315511565
Co 6.057550435562846 4.560276066650515 8.998988489746973
Co 8.187586152281039 9.805985427045945 8.151599258604161
Co 10.400912569316109 5.595146766506792 7.709966832280513
Co 8.920063749396657 7.516409483604688 7.84595498117972
Co 5.875694784868254 9.945646949228527 8.544920629291727
Co 11.57398844934314 5.463452472065572 9.920553569019173
Co 9.901373756896765 11.264414013429782 8.938755695438886
Co 7.531392453013917 11.437660981834984 9.78655901823365
Co 5.651027835005815 5.781248143420807 10.927581593584506
Co 6.985419274958576 6.738366710281374 9.261038891922032
Co 11.999331180724818 9.853516076975504 9.100971631569132
Co 9.938306680275481 8.958716922358045 9.736705080366665
Co 7.566514393011538 8.90340117194824 10.16802107809052
Co 7.89994615909409 4.888458911662905 10.498283718007448
Co 9.485088364823431 6.527092170889788 9.857969652772569
Co 11.564038022274609 7.4738798441282075 8.553591189921267
Co 5.817342682077511 10.37574148537041 10.928404573550143
Co 9.793675133348282 4.095712628098557 9.473230184236273
Co 4.98706243248632 7.679607745094422 8.695062221273723
Co 5.504290183288291 8.033537106231163 10.987720340401461
Co 11.303282120954739 9.887953793949523 11.392537963195249
Co 7.2790766637987945 11.603085980019177 12.19134018718028
Co 9.460396767221168 8.298061856917606 11.970375317061185
Co 4.012529301178502 9.420314328962183 9.878599357716697
Co 9.104655642688535 10.589480966383322 11.278290289628396
Co 9.896492710554794 5.951279535771124 11.94944181214231
Co 7.319328970424864 9.265139705323005 12.419489300927925
Co 7.6157410656453095 6.907410991135581 11.664317046353956
Co 11.445675118181349 7.557993101527411 10.941688110150302
