40
Energy = -231.97230768 eV
Co 10.303705998065924 6.506036551902223 5.924561210466594
Co 6.410837055401411 9.56137312117391 8.84393045767628
Co 7.462664215155649 7.496802507729371 9.344699020251696
Co 9.102878985775485 6.994578554063701 7.809514490108419
Co 6.229640406902797 11.400792266350717 10.506653709683828
Co 6.9547327172557845 12.947660286121382 8.863069196420005
Co 7.445283974726123 11.315330766535713 7.158264154134312
Co 8.33931110051898 7.127561126842851 11.499331062736406
Co 7.536812974854422 9.334771893315201 10.92390043152275
Co 9.885220477358141 6.150380878195777 9.828228925744975
Co 10.532807977579804 8.586818295002018 6.696765039933231
Co 8.481699524521824 9.235522203715556 7.713439691715989
Co 8.16063665260749 10.975101754524209 9.300145231150973
Co 7.163994227717511 13.21244288307644 11.60203600921393
Co 9.545137966582319 8.45897199729288 9.822311962286308
Co 7.896424529215454 11.20228925751166 12.419040122818984
Co 11.927984601630401 8.572323128445367 8.565137322176941
Co 10.657584839762213 7.258311753576403 11.848458836584326
Co 9.358014244723837 9.075690461365442 12.428268386751041
Co 11.363516600019254 6.442672276352174 7.923371109040762
Co 12.120091227572896 6.863224413193815 10.125264023200309
Co 11.652985599433089 9.13902516791591 13.215665134911665
Co 8.846272980534097 13.129734412401485 10.15371827407548
Co 9.731601324031788 10.793845920833538 6.44492862687939
Co 9.706247876779784 10.882985356011366 11.01179954849501
Co 10.4710302362789 10.500034738684048 8.669442693525701
Co 11.592188395443072 9.260901345853632 10.877477292269536
Co 10.12215234124783 10.968117665064895 13.513982818367612
Co 9.349491976964279 12.560622330613377 7.938565680506706
Co 12.18844925944617 10.192975088501864 6.976981860450608
Co 9.638145576303 12.854055218320026 12.268917610936954
Co 13.7528457892533 8.777290087832206 9.997818121074825
Co 13.103295066512988 7.742325961233563 12.035210377045173
Co 12.459831144713412 11.107212366860876 13.96999860313449
Co 11.033064966580568 12.574150006747788 9.874110960625135
Co 11.690840901191853 12.287626715482022 7.68075425382702
Co 12.6885548030285 10.877659398886232 9.540185696278975
Co 11.771807222207293 11.562569360439605 11.844067655565071
Co 13.515304799118281 10.083775914422365 11.98466474602837
Co 5.2952430406168745 11.47477016524261 8.343653250017486
