40
Energy = -231.97067761 eV
Co 13.318202015511023 8.456149669880384 7.360122944119119
Co 13.970109945855716 7.233823500244489 9.383296272240573
Co 11.06618851118782 8.924414601945825 6.856764167063419
Co 10.8526294733322 11.041754119358837 5.87175330784482
Co 12.53768680073447 10.65815539180292 7.456317341293306
Co 13.192238467443111 9.433395202237138 9.465918433919406
Co 11.718619181279655 7.607432444913476 8.867233542920006
Co 9.430653770570345 8.076980862783365 8.412389701187218
Co 13.733189121396224 8.267359351465998 11.438208536592743
Co 9.141411789135583 10.303680740569707 7.333945158358366
Co 10.657977165567601 12.072843486355637 7.934496882753151
Co 12.28741461968864 6.491077284699488 10.812111224232279
Co 10.860405505825893 9.899513523111903 9.02612385019977
Co 9.959498378991489 6.885500863834235 10.508745898907407
Co 12.348308422581455 11.733367750726153 9.634691638890546
Co 7.758317931869048 7.066507079960993 9.635268290501383
Co 7.523207978528408 9.424669179261928 8.774847501425054
Co 8.807973711144285 12.350781839087393 6.3720811400327255
Co 12.999220685651835 10.52223589055689 11.640887825764485
Co 11.475315400671636 8.637343287651206 11.094039733477834
Co 8.967947301185253 9.04167865088552 10.662815779157746
Co 6.425955342716655 8.481668488035215 10.712102968370294
Co 8.836874090372673 13.445401322350342 8.378014779783115
Co 5.387166074650357 9.810526533994473 9.202610636081296
Co 10.725704073639665 10.958599351006413 11.231109342565196
Co 12.160447376941738 12.747600210854246 11.789001674945405
Co 8.945678208036997 11.335179805760152 9.573328304787756
Co 7.18873900605907 11.664979941585303 8.09113607576394
Co 8.052299742122429 6.54198741045894 11.86024762510674
Co 10.386330108622694 13.12615269114663 10.16439978316569
Co 9.774674682352806 8.013251041522285 12.634039244654897
Co 11.3246247132664 9.799136925759816 13.191269503949492
Co 7.415040100881162 13.05058543555589 10.12772235525047
Co 12.84988701250468 11.560775441799139 13.665510067065261
Co 7.138932879388697 10.73672921049221 10.997008326386116
Co 8.983558927847403 10.294778089082689 12.752284236584162
Co 10.587806097189818 11.996302966940096 13.387011454449492
Co 5.479194118544957 11.939969068281043 9.759451010320614
Co 8.846777108810981 12.381205781312628 11.76888180225868
Co 7.478327468968049 8.59969605455796 12.692677903130846
