43
Energy = -251.70004768 eV
Co 12.624618035659955 10.589241195053834 9.112964423571627
Co 12.72859349566397 12.555845112272952 10.81814365053277
Co 13.15391716651444 8.892985864893866 7.6342734527777765
Co 14.078668974985733 8.571041770050638 9.787165046236622
Co 11.401194221536286 12.521440771824105 8.679622829637841
Co 13.824194600853478 10.43718914754606 11.123540646279864
Co 11.310341093525228 10.479977506414443 7.023020041063668
Co 13.128839778662895 11.474626726241771 13.00423769636215
Co 10.313912587872904 13.365733088811025 10.615245972280313
Co 10.98463584799304 11.139049512353111 10.878192850951022
Co 11.324218663577641 8.230580586917965 6.348677845843276
Co 12.575426537943766 6.9118392417794166 8.745124206575573
Co 11.030116089552976 8.683378257258449 8.66014153305011
Co 11.07857408089554 12.539896223471523 12.684819125717086
Co 9.059763191178124 12.943855218521024 8.602488081125939
Co 13.058442051886102 6.868795049245867 11.086312070341137
Co 9.90548028136406 10.740457947896699 8.863397850828287
Co 13.407985243009382 8.637305140828047 12.623115100514172
Co 12.040720591052645 8.949008059470348 10.800431155791218
Co 9.228100561320423 11.518979157272009 6.7863554282665906
Co 9.226012640413774 9.04739496450542 7.171041291649725
Co 11.47054170511439 9.968577500721253 12.904958927846055
Co 8.062696228620375 14.06445957458442 10.35673087477837
Co 9.67899769874153 9.133132668914605 10.8030488159203
Co 10.482209414651445 6.604884864415661 7.786571787827383
Co 7.245841828598242 10.329438485673373 6.995112717090109
Co 8.436719381934045 11.664511907601058 10.65081952517543
Co 9.340459324160399 10.903521238567595 12.71993524491849
Co 11.112203705047241 7.606666121637785 12.486299027524085
Co 7.845302627478907 9.707947410406558 9.178162564472402
Co 7.003462088533741 11.909107279460533 8.704150516465639
Co 8.750652542757761 13.17455140682766 12.420905688666249
Co 10.78972775114032 6.895322790809052 10.301166444248281
Co 8.831749785928983 7.516568507031213 9.145437286000005
Co 5.554508239254876 9.64012550130751 8.560769393450965
Co 9.282170064746893 8.683754581698322 13.31122860186226
Co 7.598767741964517 9.36161955467324 11.83931633681785
Co 6.263727054750325 12.783198720908292 10.848429013149289
Co 7.0329644806152665 8.05767916215984 7.708011405701676
Co 8.621336963460953 7.2114429066622945 11.484661761868615
Co 7.061957847718072 11.537760500378917 12.643676125193307
Co 6.1234012726123135 10.540278576928475 10.55801704890203
Co 6.724726705737155 7.955269232490131 10.148885559830328
