41
Energy = -237.74955289 eV
Co 12.352585576395397 12.476846671519773 7.6038042002902015
Co 14.00625647511509 12.314410275130712 9.120866719334154
Co 13.126655209368476 10.253310316871763 8.53614918928385
Co 10.895417810167062 10.83043848064905 8.587350265670919
Co 16.14438889303233 11.999245827372368 9.509759065362712
Co 11.149879168381695 12.974758810982399 9.509889868709282
Co 12.937608080360578 14.500450296707577 9.029419892554923
Co 15.114548915746067 14.310791517078227 10.143367288800915
Co 12.229901451942688 11.037223228669061 10.603696585274973
Co 12.85101478433844 8.731742293116167 10.275376484078876
Co 14.536285078701832 10.39984987416069 10.539544166039379
Co 13.198102378181071 13.360893317730158 10.979969217749758
Co 9.597124261874587 11.415663963821125 10.494625872968124
Co 9.203539825770704 13.788149540763294 11.168611086017792
Co 11.388779228670364 7.993947373957071 12.06492143989223
Co 11.315041375985274 14.914322118423748 10.8781954539358
Co 7.603628998197203 12.118982994426043 11.198661527620573
Co 13.538608287122958 15.67485459493927 11.267407228004402
Co 10.562738113482549 9.323156211091822 10.36320077663936
Co 11.065887996883147 12.71118495684206 11.904693941099941
Co 11.148730251203483 16.132552313036474 12.846133220336107
Co 15.381739570571105 12.293325446938566 11.58547760182078
Co 14.727076880844345 14.169401670397473 12.691976399558861
Co 9.047013278261353 11.979355590344772 12.891251487107745
Co 9.912699124878799 14.196520192207428 13.46403592801745
Co 12.469034434256661 14.357045226270223 13.003767653487452
Co 10.748827344372595 10.340927887428096 12.521327699669673
Co 11.605116278973364 8.96052074101993 14.17582337077225
Co 11.26284987852595 12.386004894314615 14.215622105341087
Co 13.309037552659934 11.957781678695566 12.851390120788801
Co 13.049813600158545 9.586636320492916 12.416250326267262
Co 11.663080685255858 14.951165073299503 15.008635322648788
Co 15.089598038246578 10.3951874715299 12.983861235014686
Co 15.29823346663291 12.400320030254779 14.109208920318183
Co 8.842741016321614 12.582499591075852 15.026409107724241
Co 10.166670750876117 10.618705975457035 15.040421597231024
Co 13.18829431098337 10.586563119203273 14.715955562962407
Co 10.45305084170954 13.554434444679652 16.208965161396694
Co 13.333360587934054 13.177261043405505 14.97439871770185
Co 11.934057640676771 11.879360962428537 16.37268839134277
Co 11.7898618270033 9.603086933332303 16.355769071228675
