43
Energy = -252.44889767 eV
Co 7.775900597745779 7.628424093133848 13.53590004239051
Co 9.588740109751992 8.940825797643763 12.90190400388368
Co 9.870773845299238 6.544497041155836 13.20448888957393
Co 7.363417202735318 9.737160817640989 12.48867856927432
Co 8.729550598122808 7.392012551437809 11.380297673158289
Co 6.44203518428598 7.780681071435799 11.639080192279577
Co 11.645713825508858 10.212021032254928 12.68923872678861
Co 9.372724829126502 11.227295953267463 12.461812071439022
Co 10.90088044062573 6.45382526013143 11.035600259564628
Co 11.738570547254735 7.85004918194233 12.843292461005403
Co 13.544576059789014 11.561359082569258 12.542097019448947
Co 8.77984408886701 9.726763860060126 10.580574064613973
Co 11.411516109668478 12.60239673106099 12.468669067453257
Co 7.527827094736583 11.734824017695153 11.091708704380354
Co 13.71629176258087 9.072913756118213 12.683766550604481
Co 11.891452127989231 6.663344475009099 8.909753678581295
Co 6.4561011191122715 9.791925927565645 10.25738492631931
Co 10.967086473354641 8.7801837128609 10.822773320333841
Co 7.374922679828154 7.806144253638726 9.490994972819712
Co 9.699873882937016 7.568362803429396 9.17093133305627
Co 13.010168383878074 7.701639190470926 10.847314343295324
Co 7.9359112740829625 9.747084546060997 8.283537903556711
Co 10.87668504886957 11.237753265291794 10.591533325066887
Co 13.042752353179472 10.128893731662604 10.733511686183817
Co 9.501672945742524 13.209301861205716 11.072099420671131
Co 8.43809240360643 7.750069293900348 7.22340840598534
Co 12.537230760641323 8.874259782465984 8.7865848130697
Co 8.957628351857274 11.789663904500554 9.143925145069693
Co 11.516184273777428 14.443325374222526 11.044429169850824
Co 7.683631287904052 13.704770642799952 9.685948661041683
Co 10.392235957538553 9.869903589502096 8.5864326764537
Co 12.859514720107844 12.594080526709785 10.584658166512693
Co 10.801879743480638 7.932985479804617 7.1504262816298825
Co 6.640646865873541 11.702391137622465 8.845961558481827
Co 13.024383063305304 7.675287714935537 6.95941364859
Co 9.60516033707798 15.03582713156464 9.632146033176905
Co 12.350810474373278 11.26181811479524 8.644837329028922
Co 10.99650313347059 13.192219946746052 9.14377228364532
Co 8.137989824446908 11.723052236254082 6.94242077428308
Co 11.911666337954108 9.940963651801985 6.685671252578277
Co 9.44488543692075 9.783614006066568 6.436403149598507
Co 9.153504743721065 13.722898859805257 7.770411198863518
Co 10.508935262848247 11.813241597408606 7.205330466907006
