45
Energy = -262.86503655 eV
Co 7.0689722650626265 9.76550190944739 7.223807455955163
Co 6.929588492069618 9.670945176195298 9.490963035714891
Co 8.779716971155818 8.585586595123306 8.282582725245847
Co 7.893278337364158 9.207824192671161 11.57803967933857
Co 7.073331975150177 11.791665121799953 8.495330615774632
Co 7.44454873280707 7.492079390004139 9.866941144339528
Co 9.028953227614489 10.953220650942763 7.527390714496663
Co 7.481412936580504 11.541930139725107 10.849419986604525
Co 8.26709550665185 11.038911610011223 13.101005291378883
Co 10.842047225793419 7.404290910886145 8.732723959767927
Co 9.227103182735448 10.219716503767506 9.849056997896243
Co 7.080224887787988 13.647625792751318 10.052172309796564
Co 10.165523669941967 9.85408203059478 12.037422799875852
Co 7.751571260399151 13.286324707926513 12.391092578145312
Co 9.14410743779152 12.558058502816017 9.241172993059525
Co 9.53435908845422 7.874787140221104 10.59962919085724
Co 10.942068550037405 9.733211822804012 8.067240856981458
Co 8.470430649623975 12.94437186590784 14.544069839450517
Co 10.32488345811621 11.80429312341727 13.974174448440856
Co 9.662905579364304 12.189636115413268 11.636399966666998
Co 12.767222707268683 6.154191487760275 9.227250514589906
Co 10.155687092771537 7.694824371620684 12.839058342231052
Co 11.58335113882853 6.895578605058077 11.12774529856906
Co 14.834529824805593 6.998891253176158 8.63905938568427
Co 11.658303565041686 9.048476554873616 10.208552360108476
Co 9.118785491028477 14.390156844836238 10.817865108251018
Co 11.336826827833821 11.417536852461634 10.107098764336918
Co 10.931566874283858 9.538469967627792 14.210217515389514
Co 9.994498705255275 14.01750539840819 13.080844848952335
Co 12.317588304810203 8.704122045699494 12.475645770106043
Co 11.136808500007971 12.111351335287095 7.904182820600349
Co 12.973593918654647 8.31173960515172 8.302174863372489
Co 12.263242760975817 13.177518528790557 13.7296322456297
Co 12.183216470235493 11.092964060500563 12.536387406967027
Co 13.089892916093493 10.685159249423716 8.591025143821389
Co 11.015033429310988 13.957134577852457 9.485183229843095
Co 13.691120163200079 7.846391121192754 10.58796699117357
Co 11.816460501657945 13.333143997000079 11.524347279366632
Co 13.620902515391123 10.247459901977043 10.885254890308392
Co 12.406551742762664 11.15269778250471 14.826202321404107
Co 13.899686399923564 12.408509162784227 11.623325769473508
Co 14.917698709261833 9.2650439150508 9.197257957139746
Co 13.084527668001874 12.86050609677342 9.42594877800432
Co 15.032710011759653 11.63098874340759 9.600167453059173
Co 11.01199064886063 15.4494955608842 11.460888674357898
