46
Energy = -270.96683131 eV
Co 9.66974524570074 6.204995349173659 7.582030194699711
Co 8.752238604085855 6.476545469280013 9.721305889275282
Co 11.014382737363743 6.8882831976360235 9.351583406870738
Co 7.2994599385886945 6.804243379428944 7.844520190972327
Co 11.468550722669168 8.002545832814832 7.219457829243587
Co 10.399678763963 6.679462396504452 11.63768506286671
Co 9.046882938427288 8.233279782805166 6.858273936307426
Co 8.017709558814145 6.267075220547569 12.078633837235856
Co 12.822992524632312 8.412310941186123 9.125205730066329
Co 6.678140557748523 7.255849783754205 10.443185205156318
Co 12.669398385125271 7.138548751338961 11.166919814781885
Co 11.055239674323914 8.81179097657953 10.851446967388533
Co 6.70472974062907 9.087467601657341 6.91831347328904
Co 7.874971021031426 8.662477049946196 8.94905266963607
Co 10.189201241084003 9.148473638189033 8.783030579737048
Co 5.524672673315408 8.496064124200284 8.826533833766309
Co 7.2319632971991155 8.611285930566071 12.84221149871639
Co 13.061562256592662 9.97604274958527 7.319777959519322
Co 10.794786271276285 10.241444094609234 6.782711391230863
Co 9.322265961569169 7.6347250552757435 13.441107541983413
Co 11.653264089777672 8.371039072458654 13.061885597511354
Co 8.733866867733218 8.36702049340434 11.172748317821233
Co 13.144321828814958 9.521759516279646 11.46976052229448
Co 9.79237041856941 9.81464457251391 12.823283272861927
Co 8.510662590042259 10.457293140928153 7.394057426755009
Co 14.406712461105679 10.069892375854026 9.606678694852622
Co 12.149396867913525 10.61963365142379 9.307110942987507
Co 8.583929500019046 10.586127864769052 10.239916290670264
Co 11.888740196634412 12.20863927588732 7.434273072734925
Co 9.468749013723185 12.43792413083403 6.674507913975497
Co 6.457806170370841 9.585301025623274 10.822460836420172
Co 11.931245776898626 10.800778241141296 13.075451386811707
Co 10.77633139970035 11.194078595932584 11.122401112203686
Co 13.800193652467089 12.1612361272073 8.767730336801415
Co 10.070288927716284 11.622620698855725 8.768027716906792
Co 13.169335023436112 11.810881983389992 11.107760964785776
Co 7.708170872881064 10.87456726853215 12.410875613325015
Co 6.449435122096675 10.711358270365443 8.732678482279141
Co 6.767841913479936 11.709501103275809 6.709979591489371
Co 9.573063447900365 12.144111859299827 12.945099636376888
Co 11.689304077682486 13.07243689424886 9.724779345095438
Co 9.945714131670496 13.899539236323077 8.45258481366598
Co 6.863240031995501 12.085509238222619 10.637535629758448
Co 11.500977500209778 13.167115483019861 12.06564632153763
Co 9.237378731491567 12.908661677461906 10.653985159147293
Co 7.924932443754956 12.5866304280262 8.552571406895218
