42
Energy = -245.26074118 eV
Co 12.787176767554461 8.784286409351271 7.929568050441772
Co 12.538529782692404 8.000986764123898 10.121629563215258
Co 13.38354064500282 10.922540972900192 7.312022435265068
Co 13.981130927013794 9.82789549021722 9.869269793414603
Co 11.772258428548186 6.651255346868792 8.381452320269489
Co 12.90066758943724 11.343384900817385 11.239378096382904
Co 11.715266579738755 5.688552199368467 10.412478828748174
Co 11.168638003931587 7.885227135912631 6.417584278906003
Co 13.811413220969737 12.12773996412611 9.165703450321688
Co 10.479527502697927 8.728084311931926 8.688763050924438
Co 11.612384990544422 7.269967206068551 12.125096775813313
Co 11.484919707915097 11.060839112842615 12.972641331339341
Co 11.218371212595803 10.196370346309369 6.817602211781596
Co 13.126735247964472 9.187993019781572 12.09182621846344
Co 12.040169940331847 13.234640076315273 12.37437751799767
Co 9.590616249943713 6.735471796649166 7.590553887214082
Co 11.871030080856338 13.080518615099079 9.956316166613053
Co 11.485257116425537 12.394477647041478 7.731614514729473
Co 9.95819554710395 7.090958692192505 10.251387125279024
Co 11.867586063378903 10.660356173782269 9.220125648766835
Co 11.133911595946476 8.889419127630664 13.631044410458609
Co 9.089924628632707 9.028360605838737 6.863445805213275
Co 10.971091634295433 9.406982442158617 11.216024184654662
Co 10.457251576310926 14.405466314945047 11.198206958399988
Co 9.318264065764168 10.283931642244763 12.786188789103305
Co 9.72387665969827 13.276234357857625 9.064790739292826
Co 10.100670283207435 11.656960130309463 10.788163198401437
Co 9.716224266143513 12.703497608259378 12.789048671566524
Co 9.580432741064483 11.011221469123974 8.305996394195681
Co 9.349762568057871 7.990081577925582 12.321067846500917
Co 7.607144657556845 7.281208693835679 10.94312009032752
Co 8.11187222120545 7.929432471049824 8.827576782386886
Co 8.668778687490585 9.65515639614748 10.377064667392366
Co 8.355832583429002 13.558432803499489 11.038009514067133
Co 7.221468540487311 9.204825058545891 12.288380594858436
Co 7.620605934263514 11.498614691748696 11.874689674007461
Co 7.771102898281323 11.882267585025945 9.55054280911612
Co 7.426475085739959 10.030547389419716 8.185308536056324
Co 6.358411350397977 9.147038135510511 10.133439099453865
Co 6.077230498198183 12.898570341559797 10.831721311692643
Co 5.483699063606953 10.744506649705603 11.587932452207834
Co 5.616877884552468 11.200023354935434 9.283171233736988
