41
Energy = -238.66259309 eV
Co 7.744368700233105 7.948563133920863 4.1096520750122885
Co 7.964606315882234 10.173544461129296 4.877021552849496
Co 10.233324639029048 9.270543472728326 5.2883621923035395
Co 6.0090116601008345 9.214234094270124 5.889335663163771
Co 9.041001340753443 6.38661550639525 5.480597368040813
Co 6.49384701896212 6.881648251512805 5.82147575769698
Co 8.291825238726371 8.417546698076036 6.269668898356994
Co 10.354239146889588 7.408565975274039 7.11316177718943
Co 9.933932734648382 9.927775215724337 7.446407659751081
Co 7.5543040546825075 10.53279717391964 7.386590948414537
Co 12.053732212938488 8.94054172741076 7.454583850008289
Co 8.613731601112699 8.405288188026994 8.592436955498265
Co 9.46937301024134 11.534358658644893 5.901342152369416
Co 4.326579644179283 7.809751114844308 7.263550077411878
Co 8.024021827211783 6.143499451392014 7.544245288811252
Co 10.169309171103013 5.080215598165502 7.748801223458712
Co 5.208421169087425 10.005941318612974 8.068705770485298
Co 5.699527719898532 5.991918811381502 8.098425500450766
Co 9.065163695565047 10.42094620144131 9.643398517193486
Co 11.692207172888962 11.12993900173052 6.615728031735909
Co 6.490578855582829 8.091901995833187 7.827854108947531
Co 9.293860763682153 12.165341665386139 8.189504716299608
Co 9.586171473266601 6.56364769360053 9.366023763400877
Co 11.263190756266582 11.067155885143908 9.029373543270268
Co 11.819151220699238 6.583767499960815 8.798339800513736
Co 10.916047429962886 8.707244606477998 9.441671076006305
Co 5.019932514246596 8.12322240652495 9.651407616125983
Co 8.30875973313658 4.688288053844274 9.420604055437472
Co 7.240320797457432 11.806531784299024 9.478821853821344
Co 10.46313984752056 9.88903539820787 11.443708768041187
Co 7.121738207337134 6.750921966018007 9.833641002654593
Co 6.831133198808271 9.549163097675436 9.686815226171356
Co 5.393756410695641 10.028115299122796 11.344136208485512
Co 8.74190695480042 8.382071699294462 10.972093234401253
Co 9.921969125875712 12.134264206588627 10.772406684329168
Co 10.943811107151202 7.110318009166617 11.191915282029171
Co 10.713651209236458 4.828839302861924 10.238490779870883
Co 6.562203008022028 8.120811369823434 11.655045130342035
Co 8.764140036744857 6.095732607211658 11.473709683402769
Co 7.77407741256084 10.559452791505548 11.565641966208716
Co 9.775144668194168 8.017151412232744 12.89251704541966
