48
Energy = -282.37700658 eV
Co 9.167491516900148 9.527441765702985 4.450115367849207
Co 8.078834646845602 7.5377462479936606 4.957774466497273
Co 6.906574445765915 9.582718355173245 5.374943785698927
Co 8.499239643423564 11.268136638943629 5.941998181913703
Co 10.77560520664542 10.111029665028923 6.186502843554954
Co 10.556830754274719 7.806384424740517 5.770930555694118
Co 10.995493719006422 12.331301355156329 7.038054901406124
Co 9.322779708329021 4.458569169009883 7.724224018637334
Co 8.722096779714247 9.01105314581076 6.674478287715179
Co 12.525399418063289 8.27689126622373 7.1815339548551265
Co 8.873667578257157 13.200257958651838 7.269354292551302
Co 7.098061724754968 5.041399203924249 7.439296898980844
Co 6.686758497289371 7.698199137490586 6.938665468318136
Co 7.027697705443363 12.194756870994143 8.299549244637179
Co 10.554366365079298 14.173441242804794 8.49347799062296
Co 8.752164550979595 6.58444691081501 6.972382570801239
Co 10.889185324333846 4.443085848011473 9.420849066042862
Co 11.918507074355384 10.389480007381067 8.16377052228781
Co 10.538725619122548 8.289739202578954 8.172517607651516
Co 9.366037358349661 10.986658817420913 8.04683385851058
Co 6.824512213768744 10.011233675053505 7.758411771352084
Co 11.066874424117358 6.06528832002976 7.2342082925197655
Co 8.060224998137825 4.645407368064149 9.677036087695265
Co 11.049358142188366 12.194799819717815 9.473050485363611
Co 7.003287146198035 6.6448997228901465 9.031477809776304
Co 5.362633572134921 8.522965814341282 8.689860077572005
Co 8.36628506938531 8.555797936444206 9.000121884012637
Co 9.52515401253484 6.304025925069003 9.189912428376136
Co 11.963305382586794 6.548359957357909 9.237824696688067
Co 12.422106728519182 8.779572690064748 9.744657976446074
Co 8.85635599949975 12.936513034024234 9.622753259897905
Co 10.368849733246325 9.960692653544402 9.927508791062706
Co 7.962019863856304 10.716313919822534 9.874357553348258
Co 5.676803818002403 10.607918469784542 9.947372912084253
Co 6.513829114283041 8.43465430379867 10.610592382377602
Co 10.592228690055654 7.68029042956591 10.8074613357554
Co 12.29163445285177 10.874392452727038 10.868455971968526
Co 8.126332934775581 6.720625829544569 11.145637853176265
Co 6.8702524422430775 12.562990093808123 10.769917634252032
Co 10.084786845702261 5.520151151039791 11.340810523848003
Co 8.741411141748161 9.051852977740927 11.399046351267382
Co 5.124519360541757 9.490617777181406 12.008967574751022
Co 9.441386166532116 11.42298155601041 11.574939032206013
Co 7.051682741097834 10.629050945953809 12.078647724881394
Co 10.892961928309496 9.56905953680706 12.210663125379815
Co 7.19384643005422 8.29801823773096 12.90819073017989
Co 9.498679839981849 7.482707922066649 12.930842454485699
Co 8.884621127663664 9.927542202909741 13.49148135199989
