41
Energy = -239.48164593 eV
Co 8.785432256871694 8.859544859393411 6.1220747434875324
Co 10.839501469381856 10.13115229735099 6.635556138958382
Co 10.972861292592903 7.8364913178590525 6.307407122983486
Co 6.939521052997812 7.490540457749126 7.214126214414763
Co 7.213831335786498 9.72915148930275 7.6181338899735
Co 9.152328285026991 6.914111251228284 7.469192016847239
Co 12.895902025393692 11.301857347436513 7.25655698358649
Co 8.863445334693887 11.25399103935684 7.403356338167382
Co 12.893956218934878 8.912999168955515 7.306639453336436
Co 6.607743969997233 11.593582117789826 8.891286426873998
Co 10.836139596308081 12.235814818307828 8.00096185623625
Co 7.617955078083402 5.821694138434723 8.923925183297825
Co 11.416383967239764 7.561418052941907 8.564757480516594
Co 11.66783255913781 10.07026903024281 8.853943403718521
Co 9.561632426031803 9.025787731946505 8.314780728276471
Co 5.530445642428658 6.924339356181468 9.070127123373377
Co 14.021169023492112 10.24629646117931 9.040203181361743
Co 8.750524806213031 12.741692598844189 9.277179223461047
Co 5.476936517876814 9.312867165474911 9.052105043894471
Co 12.673055611232721 12.205823963710873 9.480992576803905
Co 10.363365374750359 9.051617823589707 10.781840328953297
Co 10.887989518085172 13.80467546667687 9.80377418248453
Co 8.442910088233546 10.432853782189955 9.74261553332762
Co 12.96473366291729 8.444707828500905 10.042109453996904
Co 7.248120060314182 12.503928233297392 11.028596725535255
Co 10.496065039570247 11.54905951245425 10.356134277144463
Co 9.556965649198316 6.9072872457966055 9.826490371822576
Co 7.487211143140204 8.120158542648342 9.431102308263528
Co 12.54451689500303 10.461966238079842 11.103038985280142
Co 7.636775730573061 6.4765634012225615 11.167257078966498
Co 9.480987532445182 13.152539429204666 11.63985732414008
Co 5.853986434530596 7.993168353112792 11.132266539490164
Co 11.939009887447567 12.864498832362647 11.675948953216137
Co 11.667802963903185 6.80687804317411 10.943790020252854
Co 11.857952058493902 8.61444014309133 12.437344052279492
Co 6.448510207069577 10.293807475083995 10.900905124327226
Co 9.722108262799775 7.144477361774497 12.166007477646902
Co 8.679425391107419 10.979979670642729 12.039697190560808
Co 10.9306389347471 11.002164823992192 12.659736785775834
Co 8.05595003489233 8.732154179781963 11.7021019843774
Co 9.70937835791456 9.18465064649254 13.307081869445756
