44
Energy = -256.79004539 eV
Co 10.870956844076991 10.942027019113901 5.565359101556072
Co 9.099768925612016 9.334349221302363 5.546038713172516
Co 12.110972906191934 10.748635331763502 7.565359465747513
Co 11.58097960845496 8.872800196546697 6.140138133769088
Co 8.715361500996348 11.703678475571998 5.975086329940116
Co 12.133776474192459 12.372196729548795 9.204831839974737
Co 10.411850778936879 12.36859946171415 7.485977422849133
Co 13.671017298130138 11.999985521486465 10.98910717141186
Co 13.122829178709996 10.085837396950303 9.858411715971195
Co 13.481764129342393 9.505524313525198 12.268085467064468
Co 11.78234614636502 8.670337129256753 8.500988987762922
Co 9.799290315256265 7.7947891816947985 7.095990660740049
Co 9.634182724591435 10.13775834784139 7.69849184996766
Co 11.614904084414892 13.148672525117142 11.309448655095098
Co 8.02021642674251 11.891426647174281 8.251575480714083
Co 11.85853890437284 8.327933407062778 10.878141558895042
Co 13.389261814335242 12.140968725791335 13.227876167812203
Co 11.173055486887103 6.471980378549559 8.414571982147232
Co 10.844763553656533 10.51473419710456 9.776216239048056
Co 7.30784343488324 10.031556571389459 6.916055478558922
Co 9.730149879028822 12.657075175854148 9.670696995373262
Co 11.163755505828608 12.619405855517847 13.51801653840051
Co 5.884779262211396 8.18585984112166 10.090409279170387
Co 6.372366513228431 6.5146870709705675 8.407373714845336
Co 7.737546266020841 8.549847968019597 11.433682395485926
Co 7.75123096251388 6.533576001376134 10.393960613483074
Co 5.58768418534862 8.56411994594399 7.686341541210462
Co 7.901376023828369 10.666668081189798 12.498205177456654
Co 5.967227909137848 10.19202466273534 11.36396968994117
Co 10.045715366077689 10.599715680825419 13.762308656660254
Co 9.86452245648605 9.46002960373324 11.792854823916098
Co 11.481643717062617 8.536392174944595 13.160703298562028
Co 9.790361675250905 8.02150911176331 9.707419665263496
Co 8.683600847535809 6.21817581289338 8.309588553244943
Co 7.730396545042841 8.438328786128281 8.67722234068513
Co 9.610148289900325 11.969345626643069 11.812252928443902
Co 6.339014958651439 10.417565772661058 9.133757675723363
Co 9.766784821258643 7.200369288801744 11.95140638774547
Co 12.383528712034577 10.368216519487714 14.229560885124059
Co 9.966799443850627 5.713582261563671 10.230408163275523
Co 8.539438781827663 10.315596362700777 10.002045346778585
Co 7.53168030298821 7.732607955397029 6.475014075116236
Co 7.374852987344064 12.138988216648452 10.6339036870371
Co 11.776577815283865 10.92738520846561 11.99600890875109
