40
Energy = -316.54080003 eV
Co 5.389294433179172 9.46639585618011 9.3591412835451
Co 6.842920102165989 9.11596334601875 11.227305495298864
Co 7.224049196530077 11.302322375358427 9.818074377830115
Co 7.929876269075912 8.89341252124908 13.36883344049313
Co 8.441721596796512 11.212751984112057 12.13871155498583
Co 8.150763538143995 13.43891918005628 10.315419937973166
Co 6.142795208889151 8.058803414580126 7.70305231769318
Co 5.915568186089216 10.91010664170486 7.550851280168054
Co 10.105573299113937 10.663797634080035 13.807503828643274
Co 8.09718162631901 12.084694765966454 7.81692726594939
Co 10.100076967007777 12.876602791365789 12.16873311689207
Co 9.239250672511968 13.946147440734883 8.257721967815133
Co 7.244890863908728 7.392437326486235 9.853451720989092
Co 8.205872897487055 5.924439614983194 7.85355883849823
Co 8.266187060992685 6.897790700139741 11.894523892356945
Co 10.357405167243456 8.452216641397118 13.06551917256141
Co 8.099936693658039 9.498240354552882 8.64106017909178
Co 9.261163812079014 9.139484663054947 11.00986802131739
Co 9.69568328663873 11.437274564480646 9.751970708285308
Co 12.265274102899149 11.96151611081999 13.638407029843687
Co 7.243082179245448 9.92340966195977 6.1499601031470235
Co 10.568104653886753 6.6301966291671315 11.43619983356613
Co 9.684443922295968 7.390479261517487 9.292420941903996
Co 8.545576627570183 7.953564899670006 6.7433215035079455
Co 11.13715774094279 10.809963189714557 11.517075621888294
Co 12.620780800933668 9.492160338700428 13.151197382233894
Co 10.893493757876245 13.26894924940473 10.125751983209506
Co 10.961934542845674 9.417125876127946 8.9637602060374
Co 11.952706326052413 8.430102458764596 10.824712497767553
Co 9.745866817894628 10.326839883975238 7.133588376195155
Co 10.85127669888286 12.469405374203994 7.608260632245711
Co 14.651620823550395 11.622851384738206 13.451530854579223
Co 12.901123529520058 12.536348432750009 11.358118223498552
Co 12.115674456759741 6.790210392053654 9.04974773550571
Co 10.742687251267066 7.838158753859371 6.848550100144617
Co 13.894714745066894 10.431198665041777 11.461407896090876
Co 12.407020556831503 11.23714404572122 9.174452678917437
Co 12.351140530737124 10.29861249920401 6.917384614506133
Co 13.648226370086828 9.170582248108648 9.278392865081127
Co 13.104674452755704 8.090379647858109 7.236357623468841
