45
Energy = -264.01683825 eV
Co 8.322081614537455 3.771213759659807 8.276794477459129
Co 8.345947171442873 6.239684550293969 11.561699604731059
Co 12.163061256754988 7.246209408929075 11.24973520217722
Co 6.955946459973887 5.101749055225536 9.918565226275202
Co 6.538291888922038 9.606875930892512 6.408482539510411
Co 4.721864900603484 8.794486833180837 9.83727038140365
Co 10.634512963717125 9.423342660380689 11.144446593235793
Co 7.216007652697764 11.792593252468045 6.696805435863712
Co 7.997446826668586 7.580686729692551 6.806230299993953
Co 6.262943195014182 10.968500808875042 4.508473997409723
Co 11.805670245026812 9.166844494072567 7.057716572022368
Co 9.332138091412615 12.315977647029824 7.556481497905845
Co 11.376571888587973 6.194981979497868 8.929323219797348
Co 5.425162347866188 6.703965468603906 8.753883882111904
Co 10.015871887773699 7.348918306043448 10.395833980973872
Co 10.051766386722873 8.012530779189154 8.04900469617354
Co 8.453761502220763 10.413429691504867 5.058883169087889
Co 8.415373406434385 8.667443642001603 11.932086172253577
Co 6.682785655626458 9.980632387687853 10.612356143025732
Co 9.479970868996885 5.672836478804416 7.4272655379144075
Co 4.47348700695523 8.980185738578204 7.531832064925835
Co 9.391358007800887 5.012033492490312 9.796528846005288
Co 11.338660894794975 6.836574878566228 6.561187609682802
Co 4.891868965736535 5.324459657812178 6.850897631478492
Co 10.502232841399044 10.39698201405591 8.75385687996138
Co 10.764344297132995 5.449399713773743 11.5685764773465
Co 7.916148357064124 11.366358988762435 9.084358835396777
Co 7.006154824327089 5.398063612022058 7.506307277910214
Co 7.063257284433506 5.961732427897158 5.226811370633105
Co 5.05544379362204 8.970856424267216 4.805728199588105
Co 10.254588046250195 7.466502211531265 12.69066653126822
Co 9.303868277363716 6.431948628874654 5.196299820865679
Co 6.549871916630069 7.5798077571580045 10.759158486882455
Co 5.715331623923678 10.843694320883584 8.397818852047092
Co 6.654795766945283 8.716425996325285 8.590219824279462
Co 9.843187079675882 8.578424117570279 5.695773771771279
Co 11.929873586872574 8.545226163932504 9.347742972536226
Co 10.48792475803345 10.85267538754343 6.215112848458493
Co 8.662753393279045 9.954172114494629 7.34640007124926
Co 4.729909187262661 10.99695247927181 6.24045849921113
Co 8.837199575975793 10.937881638686905 11.220051441610709
Co 8.067328968109964 6.878083462867714 9.096076663689312
Co 7.3915567421440755 8.302033290111206 4.6188428033315745
Co 5.59650186548658 7.351880653713114 6.364488013960212
Co 8.712015864775271 9.201580101772862 9.690304713580668
