40
Energy = -231.58298466 eV
Co 14.847482181008274 12.086086097398644 9.312303363095497
Co 12.888784293740773 11.311807066546004 8.225101305235057
Co 10.717412422757999 14.015537934221145 8.860589205591628
Co 12.808414638936355 13.283538624079975 9.455525294041497
Co 10.922818655311834 11.780774177264936 9.461190173289143
Co 14.932462309129772 10.847203485192379 12.767079205734928
Co 13.02383402918449 10.889269023900441 10.436586289186375
Co 13.87710797502832 12.845164168165528 11.548290726023092
Co 11.79118064706926 14.958211487445045 10.740073356971791
Co 9.23906096951662 11.538866407784761 10.978146020306593
Co 15.149590878235493 10.065101245302612 10.555016299240451
Co 16.12418230865067 12.16208522250405 11.270487893042182
Co 15.182379726102985 14.193279551885048 10.31088954691686
Co 9.565909649923057 13.972347443760128 10.837764519510243
Co 11.144666206310967 9.916054067280585 11.25681076894292
Co 7.589164081445464 13.026996362836353 11.407012833161826
Co 15.157880678918428 14.515173440201849 12.791499641155909
Co 11.35229746587312 12.70575077358128 11.58392486473655
Co 12.57725115935236 11.058018817408817 12.909113910599096
Co 17.107787947508193 14.155292070129663 11.722089030561698
Co 9.064845800356618 12.9561749298157 13.058980218960325
Co 13.896201521182935 12.78900655942235 13.939495578540392
Co 10.434509978762526 14.849364438436746 12.90862457142044
Co 10.182615086520595 10.953388651108733 13.005642044683224
Co 16.2757793161553 12.65597829695019 13.59128409731541
Co 12.701476920734065 14.471989558566005 12.771301280417541
Co 11.3456820588832 12.85300158498028 14.107932518375554
Co 11.441176150035325 9.383243234566484 14.042265810978176
Co 13.41288507246223 9.120255787279696 11.951136996517578
Co 12.032862896793565 16.46727955190785 13.599943279788965
Co 13.826286818727578 15.15590359349604 14.686334182138285
Co 9.463357583709005 13.76583735649573 15.145369494649268
Co 11.535042685605587 14.91271505716188 15.16852478520917
Co 13.783670951588425 9.490645496958459 14.283412226494859
Co 10.070524372501819 11.226351636224173 15.249376375676292
Co 12.456259779793019 11.1293302803425 15.32277103841918
Co 15.480088980694171 13.695989940129081 15.516939624144372
Co 14.962882622530044 11.323117721281976 15.274898184038204
Co 13.250240809290784 13.307726249544567 16.072545407179554
Co 11.06555765465217 12.847757893424513 16.555343322692227
