49
Energy = -287.64450441 eV
Co 12.251406012482532 12.254241588960815 8.048603959618427
Co 9.768704270394094 11.710846627954396 8.190994444481912
Co 13.507586725277282 10.236178849743016 8.811388256787092
Co 15.717372500363318 10.781189676201013 9.435932922039177
Co 13.013965022343609 13.951480508087442 9.73267861824218
Co 12.582516227622353 8.312529184515432 8.117022729121329
Co 11.677440625985648 15.645664951983818 9.000548116324085
Co 14.54012281948855 12.390151682112476 8.2380920673383
Co 9.078262752253062 12.378039461725706 10.292286088324552
Co 11.20561630176652 10.045193654530701 8.690348122320195
Co 11.415315038313203 11.91510313512105 10.117254945651155
Co 10.48544782684945 13.766547623762044 8.873295969123141
Co 10.16286339063081 9.925746649658032 10.906054152084936
Co 13.893515819539838 11.910698047311833 10.434215389239345
Co 8.234013179695893 11.081963785789851 12.083708099714137
Co 12.641160552405056 15.830965822771303 11.0988641908237
Co 16.07772336924185 12.165397516530485 11.285594060277885
Co 10.948518734583613 14.293971894950861 11.143219270884899
Co 12.306188153769455 8.594905689305518 10.320679650111956
Co 15.447530906607168 13.746013059408927 9.808983926793067
Co 14.437861170545515 14.085548541042169 11.898197455621407
Co 12.2827679275288 10.48139964001812 11.798409235274583
Co 8.82484899389768 14.675587480875823 10.356395923935752
Co 14.38386204918216 9.604419531236982 11.073350534289629
Co 14.43994913111561 11.394112000608212 12.723607644983373
Co 13.53230701555427 7.60050639030966 11.970791489065254
Co 10.079952253845777 15.539096961966143 12.89740702206994
Co 12.387228279688662 15.10792105751336 13.21218944672919
Co 8.742425083001882 13.66883379958227 12.38919431671414
Co 10.345340605905418 11.907897497490781 12.249471557523849
Co 13.580673503301897 9.334079303328704 13.508082826880088
Co 9.999267318214143 10.018445114503233 13.475426359334948
Co 12.510409304227178 12.85977573339632 12.156469305972362
Co 13.762615472652145 13.383773130514339 14.09202636100088
Co 11.47041194289724 8.453513272113332 12.59145766268265
Co 10.846789807541873 13.41788877741454 13.936173390918112
Co 12.142158992687426 11.340081566442402 14.092097584382795
Co 15.897109239048477 13.037305479426186 13.443993069685195
Co 8.820039863474967 14.512832320747147 14.602212381488448
Co 14.332383996705435 11.310748082686965 15.037185709111087
Co 13.301157502970197 15.182791432173046 15.414973164207494
Co 8.884927720608632 12.094825868890872 14.155645107076934
Co 11.727261482601707 9.141220914563892 14.965474980806682
Co 13.891159979460015 9.163085699974141 15.796369712096062
Co 10.315474236905958 10.97263708553774 15.571935607251005
Co 11.061675734924092 15.280357779687867 15.251892820340991
Co 12.277007813408522 13.127558816691952 15.852312667615557
Co 10.006710081485785 13.207773130432427 16.14274065943559
Co 12.474631139581067 10.872832052983656 16.428428896782066
