44
Energy = -256.90113053 eV
Co 7.880591675606916 8.79385532562526 6.0589622299114145
Co 6.747258592616543 6.781087588065089 6.945467537024587
Co 9.055347160890188 6.792662719439999 6.792907153768793
Co 10.07173455060434 8.904571046203968 6.987732304704748
Co 5.865445852242581 8.836030715440344 7.236727438443415
Co 9.02656292568653 10.841548798090956 6.0133156058808135
Co 10.887806020510727 11.157250570863203 7.5094705191223134
Co 6.8680053076309315 10.947102715956989 6.798820925049223
Co 12.222069559167771 9.197020621653108 7.834971235704196
Co 8.156964604034235 8.437885315782813 8.43264117755808
Co 10.210004164030659 6.827996671975608 8.899965667415236
Co 11.045150451779948 13.152025279167482 8.739479301479111
Co 8.987532798867349 12.782422773346129 7.434928090269094
Co 6.164897749403051 7.544658217517804 9.22596885705167
Co 12.944288192447054 11.518627808035427 8.519660272799104
Co 8.006457017997446 5.935682944165414 8.6515109027795
Co 6.811573752109968 12.430235099102504 8.56383568874647
Co 10.379650258751182 9.06708917230167 9.34915652112862
Co 6.344639976528662 10.092749417008184 9.102047338028248
Co 10.436953954639504 11.359984020521576 10.025733011454747
Co 14.215265163630884 9.32782205262773 8.871375972042047
Co 8.666740020973064 10.732417099995558 8.464157956456088
Co 14.557299163101797 11.099501681446181 10.297896183298395
Co 12.372142069112934 10.033303301719725 10.295424077275372
Co 8.212880182194235 7.278577402059329 10.530205952747734
Co 14.390521790749881 8.859099868440532 11.100359422948216
Co 12.663891498317723 12.410962964023364 10.74856046924437
Co 8.749357442752697 12.997297424281053 9.756446480435917
Co 12.40345738491562 7.739536448295091 9.870500514973875
Co 8.505736698874893 9.719412576763927 10.615186748656924
Co 10.676285288387527 13.466449677026992 11.14543180202423
Co 6.412815350700352 8.903645994795319 11.164624473692015
Co 7.033836339857495 11.554631354302535 10.721044084561804
Co 10.565900276561337 9.736386400136313 11.81725238192363
Co 13.305679646724172 10.625637148846574 12.35791887693441
Co 11.310033128036915 11.840358274811217 12.761926963591455
Co 10.455215161521236 7.363387901991136 11.286601921701948
Co 9.075021449653928 11.795035657964798 11.953958376455626
Co 12.487241522151603 8.3125154329477 12.287952013417803
Co 8.541330074463785 8.328284309932162 12.602005989014838
Co 7.450979097074957 10.336939960911435 12.765072818831023
Co 9.5214854630106 10.247550516958569 13.849924036015153
Co 11.842675973357833 9.906198095042432 14.039273662213608
Co 10.558682931625164 8.071969317710458 13.66100472651863
