49
Energy = -282.54264253 eV
Co 11.015706467634702 9.73414182304934 8.112494338981088
Co 15.254462041041457 13.218446545553007 9.700366069736749
Co 11.434672383205998 11.738750193728208 9.177550516837265
Co 12.911210851206157 13.713277085538648 9.13839243432125
Co 14.608090849713582 15.445354357757997 9.20365159709539
Co 9.827731346889989 10.177840101181651 9.975432169407775
Co 17.40402081597235 12.641997579914204 10.16632992316532
Co 9.712888140868964 12.329869993792183 10.919136942214521
Co 12.4405565270065 9.426876033292046 9.818872194848455
Co 13.658661385458885 11.526473037778898 10.001035780404685
Co 12.349362802961869 15.897488610571987 10.032269492302394
Co 15.956399788102893 11.139868872120084 11.01594111425851
Co 10.715727140269443 14.191050071747126 9.89670603438323
Co 7.683095846975464 9.618843892416976 10.566361097214171
Co 7.557070087110832 12.015848292126043 11.086787441624686
Co 15.885935998283305 15.733131185393805 11.211842485057103
Co 9.154579644079952 8.07827818397826 9.542255828993822
Co 10.873068792789725 8.430543219905129 11.187173225078734
Co 13.863908384127754 14.5152637776329 11.150007480653885
Co 12.062011248590075 12.86714438211031 11.210802407976486
Co 16.290219757569464 13.60122665222913 11.858214579356702
Co 8.894347161980706 10.495651575235133 12.305047775321292
Co 11.569366938938451 10.643796011442594 11.638191343567748
Co 8.729917946479839 8.042069065892822 11.846277592325125
Co 10.167411537124593 8.936374358784212 13.43155055060292
Co 10.240553617514214 16.1066047845882 11.051597973615856
Co 12.628427558068223 13.486852441520792 13.336608665196753
Co 12.012454029561992 15.537635253509649 12.331035738217851
Co 13.963484404519527 16.65170295322911 12.035915065490045
Co 14.311190951563423 12.391587129950441 12.153724669581726
Co 13.964775789086078 9.87864841363078 11.69468737641838
Co 16.090266574997948 9.152536351894874 12.316862367796992
Co 12.36608417235405 9.13203983263488 13.316740069153168
Co 8.492868013661148 12.628375255782776 13.22290702915323
Co 9.004925164759799 10.554366117080143 14.654111422574672
Co 10.126124857973574 14.10569267827982 12.326777115084063
Co 10.751283617406173 11.846747116076614 13.489004222417739
Co 16.073127496577754 13.224830326820422 14.025572907245655
Co 14.528613712174577 14.82349075452992 13.376832332994084
Co 15.693741713367272 11.077799490258707 13.3958966071846
Co 14.471341957088011 9.164728870226412 14.042248689711338
Co 7.484506836052996 12.231270549707096 15.215242446578518
Co 11.330338952047022 10.322167457641227 15.167684715406093
Co 13.2632343194097 11.187830558352145 13.969149419297716
Co 10.75814237614874 14.198552656513066 14.515799109737351
Co 9.653261735220466 12.527473118008142 15.646013562646194
Co 12.925634960914488 14.795857241550767 15.13242770566055
Co 12.170100265126733 12.603761316305587 15.562805168276412
Co 10.982407685789628 11.517159074502224 17.134979850597876
