41
Energy = -238.61221348 eV
Co 7.563275386589424 7.016789381557624 3.4936067595869535
Co 8.773757041046606 8.643982643497978 4.483423289281596
Co 6.470714450438809 9.34133639517305 4.224319428920858
Co 9.242839160508382 6.332544704558316 5.203105742742445
Co 7.254483508523174 5.169867843186318 5.056348891506981
Co 4.266596693689678 7.692183958914733 5.313678820478308
Co 11.137687635285099 5.283378715525484 6.180236154982996
Co 10.919078821680575 7.7522932539226765 6.192232688846095
Co 5.221465270975532 5.510405669307617 6.1125856955017905
Co 6.525348011606536 7.428138607648682 5.468624992434653
Co 6.109054869572346 11.759663440033515 6.338011937732319
Co 8.671668035737104 8.12645488632303 6.657816994675122
Co 7.713264890260841 10.198025312929405 6.008671872831313
Co 8.91168728025842 4.361411654349788 6.7688196593858185
Co 10.061601130389763 10.038851909166308 6.619023775354031
Co 5.246480477194434 9.573039276800333 6.225315242842796
Co 9.690779031765025 6.293375897464221 7.646697385866443
Co 11.851526207265493 6.370472642259795 8.229532676373093
Co 4.6517238753652785 7.241342182834712 7.536776274735174
Co 6.680148476443753 3.764604421156073 6.976070500448202
Co 8.144186577362449 11.945824906478087 7.582223384599389
Co 7.249887278068067 6.0574990187244415 7.277444913172272
Co 10.264902047218367 4.475135002836026 8.813666606763274
Co 6.587111764009424 8.577729341828576 7.694749451318086
Co 6.255851461311443 10.775034738325797 8.441090664347785
Co 5.545090099406119 5.008506012181077 8.554323025620437
Co 10.617628740851904 8.506206282196336 8.451155150364205
Co 8.522969274335606 9.84729717900594 8.344619476765367
Co 10.381171283768076 10.95411995963249 8.916501169019297
Co 4.838585189416457 8.920893332211987 9.289525014095478
Co 8.410531888116843 7.629262033305238 9.044469041587224
Co 4.0208897593331745 6.5380339881211915 9.798499332850584
Co 6.230735084146421 6.990065757146585 9.404807571912405
Co 8.032938524281677 5.255343936133901 9.410359993491058
Co 8.207007174738889 11.367429446404827 9.98645275746927
Co 7.005077391145127 9.219568946078786 10.231326003721378
Co 10.154007174858638 6.585556997078075 10.008077539387708
Co 9.39964672930694 9.214305657041262 10.4489399829342
Co 5.895294981500163 5.398103301075452 10.964053039798696
Co 5.408809707162723 7.74889429866531 11.377486033991714
Co 7.804266644802503 7.026796098656245 11.165100091999953
