49
Energy = -289.17055641 eV
Co 11.857228841484382 8.007886782858037 5.5939246011227
Co 9.910224553351233 9.369523352186569 4.859783927066694
Co 9.583720312811943 6.9104111730817 5.498566168705867
Co 7.740157338649855 8.574662391040265 5.474374666816937
Co 7.386089646734864 6.415302063624772 6.440064567642804
Co 7.662860325167079 10.886319899700334 4.853454888916824
Co 11.744353493287576 10.220534794963225 6.420946943592177
Co 11.231725764581443 6.273796760336109 7.24466220380275
Co 10.291784930807182 12.12440574818864 6.574358144242154
Co 7.627275167510452 4.777100040978768 8.324163809674419
Co 5.6799281727377675 8.056440868320866 7.026493143718956
Co 6.417951830246432 10.31074635997154 6.7391743823586046
Co 10.121410902268929 8.51800380266918 6.9943886098077295
Co 8.841794325158489 10.445536917975868 6.646511085163734
Co 7.784057695844075 8.602688744103382 7.855538574759036
Co 12.106337884456378 8.375630752394278 8.119026865738302
Co 5.454024236403711 5.622967887237985 7.4290068076701115
Co 7.742519913377132 12.325901121337248 7.373098699995471
Co 11.944400302702995 12.564768786279052 8.10694771967861
Co 9.311254244594101 4.7552068592857575 6.64864017817723
Co 4.356323257881208 9.753439734074894 7.809016722228575
Co 9.658374432065667 12.555050480502429 8.890273649404458
Co 9.10719923336636 6.646356650968273 7.956381022180128
Co 12.95568749833829 10.4853916033519 8.538510015474756
Co 4.470931917704166 7.395121228390042 8.956832239271856
Co 5.909784100349494 11.416462247358755 8.72924218239893
Co 6.777612192549013 6.816669362659219 8.941872605047658
Co 8.135117829579826 10.628718946014404 8.938676127650641
Co 11.73359831434701 9.319715929436512 10.345916290153626
Co 5.132183412775376 5.1975357645987925 9.675209063255581
Co 7.562509706869381 12.742545639594518 9.860943099107933
Co 10.077850815670448 4.844749873826859 9.036980486434475
Co 11.57963638680156 11.67986319541176 10.266092971945724
Co 5.79759552107485 9.204643953590404 9.509923040794414
Co 8.898837229741764 6.49868397712898 10.257806686185301
Co 9.779068602217434 8.606315323982965 9.33654567449177
Co 7.784005619217118 8.585951220750108 10.529124234799127
Co 11.261784586322271 6.794404551271613 9.69059967752604
Co 10.634677436215677 10.553003927811337 8.429579787930198
Co 7.174978588923625 5.192248797251781 10.727974608782171
Co 9.50039740158138 10.835650234561848 10.785195861937277
Co 5.882021589185684 7.135908687273679 11.019762900179225
Co 6.99573445519511 10.785467668423387 11.019199289934209
Co 10.439380688431916 5.67620246132837 11.562180259776287
Co 11.035008516714166 10.140904852456824 12.344629135806038
Co 10.186760512871983 7.994883076286489 11.663887329542044
Co 6.317150260413115 8.977515877736128 12.359789873849152
Co 7.987841227419628 7.114611891600285 12.299282936753652
Co 8.648200314806338 9.503499266630104 12.514797769313871
