47
Energy = -277.02295586 eV
Co 13.314063236928249 11.965226209128176 10.239727024271003
Co 11.32872448641737 10.821720390654015 6.785007331556932
Co 13.039179606829691 10.46778781835484 8.479768736295847
Co 12.297032899287021 11.321013303200884 12.246268972820474
Co 8.96355729487609 10.543750107811402 6.421979604909097
Co 9.611500581698344 9.60315450641552 11.655850395229445
Co 9.321890909810161 14.262142889044206 11.290047120204424
Co 9.718611933857431 10.86918840510426 8.624524417432292
Co 9.041646770462805 7.3276670574131195 11.8482931163716
Co 13.242055790133268 9.538914333408052 10.725811004845461
Co 9.820237096099593 12.653526676811488 6.953447510425616
Co 5.881202362274003 11.226025202664117 9.242082910967262
Co 11.24058150601953 12.980847845325414 10.83885962814154
Co 6.664293606508473 11.324524721234356 11.607505615502092
Co 13.412677806906816 8.127104810077524 8.854824079421698
Co 12.93960668980129 7.281982316690755 11.120163565728667
Co 9.409097347934292 6.4059263176091505 9.667236000753121
Co 7.805202279960548 10.108070037589231 10.00481211629792
Co 7.308548365714078 13.040524992523393 10.126812110844051
Co 7.631076256424314 6.722052011167156 8.106817272367458
Co 7.361735735026067 9.107413237450391 12.205613862138389
Co 10.889271344896752 8.171723156436954 10.433014619251306
Co 12.230650922185413 7.155516542704955 6.853225094909194
Co 9.071081926483089 8.66675665468215 13.808126634166246
Co 6.6731044963114945 10.421200227513387 6.80245451694746
Co 6.555351342666744 8.889512763212469 8.386896138129792
Co 9.493952042714705 13.293504611925696 9.167797925288637
Co 5.666093185202824 9.337805386286885 10.577120936804045
Co 11.2723859257237 10.616218411730795 10.22971443466805
Co 10.79560921231498 10.222743889683784 13.581693399538945
Co 10.468441789120455 8.728551312745385 6.000969454447074
Co 10.272145951879482 12.464994284405218 12.95132761990059
Co 11.007029885766507 5.996818247779188 11.384330257986154
Co 11.639137705919257 12.407713272320587 8.5511773104942
Co 12.971496070167026 9.189895778240562 12.961917725184238
Co 13.017846764548224 9.224421285089488 6.503104503403552
Co 7.394800215712792 7.694839319078618 10.27748725520299
Co 8.459824248027772 10.951587671569403 13.223893710146728
Co 8.992998546279887 8.577809008607455 8.772306062910307
Co 9.127332188609222 11.83296886532927 11.004166344803092
Co 11.728848853324214 6.492616856434676 9.07131945290877
Co 7.869653306690655 13.119095041868988 12.561074283423649
Co 11.282671056686368 8.882597202963895 8.196532346874264
Co 11.137296545618534 7.9365892455398015 12.776187012579932
Co 8.153530107629255 8.406285102012932 6.595852539675435
Co 9.968774354934121 6.916442668539498 7.4159117833335815
Co 7.745912382456991 11.940992938459006 8.104709175337275
