45
Energy = -263.79071017 eV
Co 5.4122936777206565 10.02235407313917 7.607810365531065
Co 7.834495902216376 11.20724242339204 13.097772158734012
Co 13.150652153642305 8.816549794495614 10.913188730741416
Co 9.004799482279415 7.208340686833828 6.84219199580808
Co 11.106904085810994 10.315296089369845 10.994043829117517
Co 12.024084554605194 9.415993599552113 13.029865917072092
Co 6.752581188561333 13.055959005897872 9.003131698277048
Co 7.2818867819624025 12.117083608724894 11.076068524192932
Co 9.661974370850588 12.28260478081618 11.651335677125934
Co 11.779072837599259 7.172338744745653 12.133406695073443
Co 11.705829432565258 5.826123141565447 10.281314311518372
Co 10.007430337566163 6.399170876199604 8.751923303561702
Co 8.664987561793177 10.249444161415164 10.684273894772712
Co 10.557926229344993 12.489542655384392 7.581523160957672
Co 7.869065661064878 8.901573549010626 13.245149795339623
Co 7.320949528853409 10.650175708241779 6.013673111964016
Co 8.966690309559743 12.478810088957067 9.394487486383994
Co 10.208852460448078 10.513321052951273 8.752469033193426
Co 9.853034642407138 8.5333374905531 12.235758060751706
Co 5.892232525140403 12.196751015724105 7.101387448911978
Co 11.035733706585368 8.2752871133776 7.593521163335014
Co 14.03180342747235 10.333466742552666 12.511764139894522
Co 5.6485532759363055 11.086619113274173 9.667394535273129
Co 11.295210773918196 12.436939574195245 9.970099942055013
Co 8.848811822317975 8.526581563392696 8.86856173303709
Co 8.216261507908769 12.60515062043952 7.049931492412237
Co 7.838965692203083 7.950431272912472 11.084712050419128
Co 11.492532331982622 10.477333476709944 6.726982729234934
Co 13.798336276976064 6.603439441403915 11.02764079747358
Co 9.623533906226848 11.567795440826009 5.6046414954973
Co 12.065996107156693 11.765083542890066 12.4645186726399
Co 9.260166420665575 9.608384120099187 6.694874535511587
Co 12.435639022851348 9.781477540958983 8.829014554782889
Co 13.270010493419619 11.213091569411723 10.484507028478557
Co 7.137217052675239 8.538127320988558 7.218115158034589
Co 6.497176717531577 9.932666335000466 11.579153467348112
Co 12.764872943222993 11.954684098447203 8.194320940461008
Co 12.779031814064037 7.3940305658697945 8.97060769730594
Co 7.674146614777572 6.611257297667098 9.143956307590761
Co 9.534774082476964 6.3884868528357375 11.051899018087978
Co 13.863257646034686 7.9411572895760605 12.983381201394268
Co 7.608778294451022 10.738478032166901 8.367798799824993
Co 6.514844811783259 8.851463463365857 9.446022709090782
Co 10.889521269889375 8.14242823101116 10.082994091317273
Co 10.021780477814382 10.62682704798867 13.19551075480231
