42
Energy = -245.01430446 eV
Co 8.871662094032672 10.71961323889513 8.587191816318779
Co 10.890574868421911 11.866925421070816 8.23010677937194
Co 11.827035302779198 14.05117024063417 8.001034008916216
Co 13.306933288650605 12.079161206694437 8.355428082999207
Co 8.900108380501381 12.882739063250265 7.680444321332106
Co 14.662522986108922 10.38412968250866 9.272292185159245
Co 7.929580673488997 12.464370176079681 9.782578964935071
Co 10.804904177385914 9.4096756833916 8.519214438079837
Co 13.15839143175378 8.652830842745724 8.966424736365584
Co 11.832683133558678 15.329350958287732 10.030058281905415
Co 12.00515524991592 13.04239241236526 10.081802962307355
Co 14.185213756986297 12.17394900499628 10.677702528403422
Co 13.8311687597274 14.213329604033408 9.274735407706704
Co 9.852424312927319 13.900320115680438 9.490206395529087
Co 12.1646924989251 10.616168854139328 9.855361271226123
Co 8.152405145606064 11.105527659836142 11.808940404984837
Co 13.692301341034492 9.42287260057856 11.157532699962218
Co 9.234965649679484 9.388970649498953 10.44588247022348
Co 10.044691365125837 11.713268801325144 10.524673390861976
Co 10.668438199210295 9.937328942212126 12.220595969577694
Co 15.458841553693032 10.687826068123178 11.826877778999982
Co 13.256365206786857 14.08546656207822 11.765553092865694
Co 8.279937352671524 8.854193370130135 12.602829214225261
Co 11.41539547892413 8.355676855042013 10.511514936596164
Co 10.108035932497554 7.586203849889171 12.187040627704109
Co 12.306637716355697 11.680931145327868 12.067245239962677
Co 10.078977887614721 12.285504981559574 12.914900355066493
Co 14.332893155971789 12.422196855683605 13.101751643839021
Co 9.576737740777064 15.65189623851826 10.91277745733457
Co 9.009043284205466 10.466412873543177 13.99504831442993
Co 10.94589823277964 14.155131630508048 11.89996465540975
Co 8.613046773024056 13.581265130383052 11.66439708329558
Co 13.716396300048434 10.179051018498484 13.376003996620152
Co 13.318664627655261 7.211081947028387 10.90171421490654
Co 10.507069966288093 8.651803487879752 14.23553359915895
Co 7.9186567681055875 12.528749169317743 13.697017661357917
Co 12.119034055292758 13.137812820240347 13.86080481390961
Co 13.438051204727971 11.640694113804829 15.144903507476592
Co 12.367859863385329 8.286114610565035 12.810005557221746
Co 10.024464883319977 12.381416290059427 15.149747081144758
Co 12.719416572623304 9.006037889581764 15.045509849741297
Co 11.473010267577703 10.810725374159064 14.366939642712667
