43
Energy = -247.82387183 eV
Co 10.441016112661275 12.949071713725647 7.649529826518494
Co 11.669939777885947 10.92037331194812 7.67912100573914
Co 12.821080760214736 12.97547770410319 7.837215223881852
Co 9.173155110835985 10.941233689327339 7.479027879869314
Co 13.878568813470626 10.338176671663742 8.266992907111032
Co 14.90487162393843 12.220040091940035 8.943440432436171
Co 8.12442780190693 13.00229250523228 7.365024780654788
Co 9.043440940695094 13.674139023456444 9.428015753943011
Co 10.341217234658952 9.004700566648147 8.239832740299006
Co 12.154975700293724 9.529724948811634 9.615267312564672
Co 11.3830266605832 13.75390438993621 9.649823640587082
Co 12.770395608063208 11.859407689840245 9.8619921072864
Co 10.290634773908407 11.458591207154575 9.496400889632357
Co 13.695163356014005 14.056622982796442 9.830524290977262
Co 8.503118479651679 9.540986762390856 9.424680276562535
Co 14.26509060874528 10.20462631940384 10.628403207357541
Co 11.566574527264065 7.251204474721649 9.212550251443137
Co 13.697004679554297 7.932953574597498 10.104729694912802
Co 7.730158921039063 11.756854466476515 9.261956072353867
Co 14.662280460411894 12.50871974396868 11.249090440839442
Co 7.809926585045012 13.046114752200776 11.369486597860798
Co 13.433905476368084 11.14807920212485 12.648629689337932
Co 12.439084859734244 13.119069903026418 11.854500982648903
Co 9.192452441423095 7.270088856391593 9.577270213021473
Co 11.354100893826452 10.851105712238487 11.620852539865854
Co 10.135271329973637 12.932845218876983 11.53370067550742
Co 12.743754805227047 8.909409298991804 11.971166264992096
Co 10.510571040329541 5.423010050960516 10.108888915227173
Co 5.849482122197686 12.396284849456428 10.310957169231614
Co 8.868295363376193 10.874912372377096 11.374071368977182
Co 10.409966241159799 8.699983758642187 11.01250458837486
Co 6.6357650384394455 10.317444238556558 10.938437855345002
Co 11.930363180880722 6.743015208175796 11.399650714810159
Co 11.096270919983716 12.056561867179262 13.571140070816531
Co 12.047411759087858 9.89371983270485 14.015080007166336
Co 8.067262557477653 8.469541183720274 11.499475992927637
Co 8.713425172364133 12.095501045330487 13.349960669330057
Co 9.575001734720788 6.663020426900057 11.828610505020595
Co 6.263862620641142 11.959474662585851 12.593592575051671
Co 9.852045649537095 9.923178259801114 13.28299000037417
Co 10.972110116666999 7.86940200762246 13.285864890684987
Co 7.488160465195854 10.081192425677337 13.168017392488554
Co 8.642213548321939 7.957449015571386 13.657572381481879
