43
Energy = -250.49987056 eV
Co 8.266231955181901 10.75836015163777 6.643424455895819
Co 9.732996231130617 6.969520912296305 6.487904747180243
Co 12.723607302015154 6.392898406947256 6.908156972784243
Co 11.665461840798757 8.287314997419081 6.091231548773105
Co 8.885347261292031 13.037775738798015 6.914877330101013
Co 7.85215311254329 8.181395702087187 7.562835828076429
Co 9.871263465569918 9.178197576098052 7.274721120514869
Co 10.246611286596183 11.441042925959591 7.830933349600522
Co 6.329302388915874 9.925514886445633 7.79348382643654
Co 10.842049116259613 5.239851403001063 7.594581434683698
Co 10.436858940726264 13.573802170424546 8.753086978103713
Co 8.696290465306005 5.978256813060192 8.275917671720546
Co 8.285743987551474 12.664230238141455 9.098002504723395
Co 6.6867135693947315 12.209033798351637 7.538159150823033
Co 11.233637391744296 7.473796193299055 8.308608779701425
Co 8.44321813620808 10.274343411394165 8.951048426555444
Co 12.228676288629186 9.77121639218507 7.829871161389405
Co 13.5066780414607 7.966292576508959 8.625584679943199
Co 12.683852534543659 5.781744785959667 9.153093838554648
Co 6.91979084533532 8.742826624709323 9.829576041555354
Co 12.192387739669275 11.734899662977748 9.156115036370872
Co 10.410435623221796 5.926270510083351 9.90163432672642
Co 6.404407088813118 11.12076841155691 9.770093876677548
Co 13.043241171151632 9.775563337145403 10.209801112335727
Co 10.794538272115485 9.516980414012638 9.625027469505792
Co 12.120213541765 7.64519566309837 10.510532661560527
Co 9.070927026978797 7.837658629964506 9.557106561769388
Co 11.703234187672384 13.60219821567298 10.652288199864236
Co 10.187253355821346 11.694782998357613 10.365984096473026
Co 8.890886390200949 9.634797378876701 11.304171563607802
Co 9.364290782986942 13.737759188648008 11.050338791785448
Co 7.724137150432119 7.709100254394491 11.88069299438894
Co 7.946333944466813 11.842604767652013 11.347168284604006
Co 10.051510404971095 7.401412809446683 11.672059545511548
Co 6.543319197963619 9.805088817811393 11.869957999673558
Co 12.205394987004258 11.518646507645016 11.61221146497198
Co 11.290175968424492 9.376441471573761 11.953685133653499
Co 10.087714987635325 11.229079698451653 12.749140924064841
Co 9.314144756257855 8.80520519431921 13.432029559068297
Co 10.932615276177982 13.342262886465715 12.784722688929648
Co 8.635805305983906 12.995253313883804 13.223067826483229
Co 7.929783403693324 10.691492257750864 13.449778550128105
Co 7.018045094007581 8.606401724105453 13.85457130334722
