42
Energy = -245.20001513 eV
Co 12.391810695552504 5.928131388440337 9.640071470471678
Co 11.668527036578212 7.505145193467955 8.221899213342876
Co 11.019952481699573 8.91954667065957 6.346236885712048
Co 10.204879940103197 6.937995104557629 9.96547503000877
Co 11.225381019023304 11.349615816471074 6.699242503530776
Co 13.353905240589054 8.14293138540047 9.726819313899208
Co 9.742846437714714 8.812986516864155 8.366828207172272
Co 12.45622691646148 9.678169337511386 7.94586802153923
Co 12.019309613102255 7.188593013667943 11.474669711792126
Co 8.269338348952187 10.686459211182482 8.759653331660115
Co 9.159025900819133 10.28818739762126 6.622972818325653
Co 8.275404105825858 8.49383293792231 10.183749128878256
Co 11.262136817443436 9.012964392052647 10.249873806076716
Co 9.269478960809366 12.4525956927911 7.570861807700887
Co 10.734014565030865 10.975491584465889 8.906463557096723
Co 9.789697264215302 8.235863537989932 11.96154626893484
Co 13.220785412320415 9.217669448823056 11.913582571123053
Co 13.007231675036511 10.649827628281013 10.053305801257029
Co 12.991162387720516 11.970818151301025 8.084187959382348
Co 6.804024085210924 10.335248761322617 10.512522287248641
Co 11.75407597677348 8.197606923748685 13.531850772466761
Co 9.684295167746255 9.15130990009294 14.135949080893413
Co 11.137146714916565 10.185726476506643 12.460239358643323
Co 9.26825069812475 10.474212841462066 10.943413394874726
Co 11.494500345866284 8.985614790739632 15.666871227077309
Co 13.31838196287086 13.00520832796168 10.231999985522004
Co 11.246017428786871 13.322111734534735 8.724745245884028
Co 11.240382085093733 12.133097127383834 10.955174235563174
Co 12.692733364791465 10.313879433649568 14.178707876658526
Co 13.2372356287651 11.671076092470917 12.189443639336236
Co 9.128018705968678 12.683571183542382 9.892231284837186
Co 7.835020527613138 9.492672937290054 12.500245484587595
Co 6.905553448479792 12.480222423853757 9.46983791724496
Co 9.173033877907262 11.283684868760794 13.326159221132563
Co 10.635081254857738 11.040444642615528 15.158688359898754
Co 9.62329580374435 13.363889563200425 12.276423443916407
Co 12.442334273905677 15.02325653845856 9.679445468547488
Co 11.446621615610567 12.372679398546435 13.443089418379667
Co 12.053131652080337 14.087347041421586 11.907991225223856
Co 10.30532351167116 14.641564802812212 10.465243052489665
Co 7.652178761041613 12.070387808307478 11.733494134138997
Co 7.902581268676733 14.272779507463307 10.984585023515091
