43
Energy = -250.62602284 eV
Co 5.239489156547432 5.186088432382071 6.31136505885832
Co 7.532686797467074 8.372209116675554 5.660173850475959
Co 5.218873258173444 7.551120583146183 5.745330748801791
Co 9.513694705222287 7.799881870135279 4.544466759173895
Co 9.016125045415615 6.357698178045827 6.390032107330293
Co 11.515714484873394 9.211321261469518 5.236440860468484
Co 6.042618774321109 10.11406070612838 5.9114064931924695
Co 7.117327682960877 6.088332364233076 5.038130862979442
Co 8.885561005943428 10.457136790338946 5.217605557475974
Co 11.372523871591726 7.007441763639303 6.297651669905122
Co 6.983533967639778 12.146610498510965 6.286823240169416
Co 6.684771408387775 6.624975905859811 7.254597202903217
Co 8.067619823583708 10.384148295874393 7.338992550504894
Co 7.5477301383021 4.51608013155385 6.9907254154148974
Co 5.913056657110427 8.934035152813912 7.877271111963751
Co 9.773931761545832 8.744065134237308 6.55600577028637
Co 10.655066906644672 10.781293497250836 6.914943659209204
Co 8.175042790105532 8.146886150828477 8.026006925093998
Co 4.002101945997724 9.150960669364528 6.741557383055008
Co 11.899422798988516 8.805782187898075 7.746855609793134
Co 10.285303237452819 4.978824431305195 7.907770709432679
Co 10.293457267394999 7.267771018303384 8.367005432123085
Co 12.261688478542858 6.277820197825381 8.527128398777375
Co 9.942678740539725 9.760185655674876 8.945609185365512
Co 6.181316410787513 11.245826898076942 8.436540703452076
Co 9.110604544816594 12.4560178475638 6.990923716698749
Co 8.440389909804475 11.723150083507155 9.225978804993117
Co 8.387668335053885 5.921642588277654 8.826890280382173
Co 4.544158810186351 7.03326008907941 8.0809880013981
Co 7.454891239001712 9.67369143671945 9.606891116607073
Co 8.31579311853223 3.75383972799507 9.055231926235876
Co 6.177468265023968 5.11267969279615 8.993688585277035
Co 11.381034105500762 8.18736148805403 10.146462833167035
Co 6.587150462201807 7.364906060324354 9.687346589863216
Co 9.040762393707487 7.960438874454737 10.326356904520889
Co 10.257751771895053 5.977660417901313 10.330539629650184
Co 5.2345235181285545 9.19898183515332 10.163862174785674
Co 6.582541087423585 10.900832560407999 11.247603397211021
Co 9.037430580389715 10.19056159022729 11.159821566419115
Co 7.7776328229096645 5.91812131517311 11.057169791026846
Co 4.638125231735715 6.591103031898361 10.308156321383958
Co 7.253409192256632 8.564050313541498 11.68588470691741
Co 9.191405271010753 7.0952219304725235 12.369844162375633
