47
Energy = -276.51868099 eV
Co 9.442900107242092 10.79046211227241 5.969514832105314
Co 11.916253817402188 10.879524845074886 6.328069066504122
Co 11.001072468864859 8.870475559962037 5.635640840922628
Co 12.135992974462585 13.063557515577466 8.877138620061283
Co 8.75704460469185 8.628895157130971 6.448929163902785
Co 7.133609243022717 10.565824535591283 6.257892814700918
Co 12.681094841634813 8.624920591345514 7.446519299253422
Co 8.117647686672779 12.574881828052193 7.560819916285371
Co 10.387255634387808 12.145558670090244 7.577244520810259
Co 9.719937070052357 13.573251591177817 9.37681809378175
Co 12.47428930130513 10.812009292988447 8.553436246943454
Co 8.46242608304258 10.39837996748159 8.180357749417595
Co 10.57135131480407 9.598085359917018 7.813768755123057
Co 11.675397393471568 12.698941964790743 11.080256790869987
Co 8.736515075883473 7.907393974784179 8.644336887284588
Co 13.724618601846913 11.72103825637972 10.290851261677005
Co 10.712859684585533 7.219316961450131 7.415280527207456
Co 6.736617465362632 8.802647815417881 7.741415988712293
Co 7.968074669340398 12.066458193929343 9.831860663132602
Co 6.25730056990111 11.07987561994327 8.4811113844735
Co 10.351799742965284 11.379255194775281 9.75872168064557
Co 11.477736760024946 8.175635987768135 9.494788213343954
Co 13.852881314625748 9.225631774952578 9.501898798607334
Co 13.421924263260935 6.96281157879877 8.971542754191242
Co 9.263740256442832 5.705687866661296 8.469347557101488
Co 14.312670767216698 9.859376505164333 11.787937609696252
Co 9.420051472973423 12.715127710789572 11.655937073369289
Co 12.984508802209156 11.558582402119143 12.616250921017068
Co 12.145666239085823 10.100839797767817 10.901069587609475
Co 7.149678851199812 12.855974902157035 11.988546357743976
Co 7.29263668834456 7.1480322765710005 10.36475068910897
Co 5.956445245451431 11.162972335346167 10.897108187061095
Co 7.175952286461416 9.383103135677912 9.968219347594259
Co 11.376979026200868 5.882440014282174 9.353608217405903
Co 9.553036467780334 9.371284023758452 10.354055078978234
Co 10.48566077384477 10.79058197522092 12.367656949086077
Co 9.626753618471072 6.819315643145032 10.534490745950425
Co 13.05917306168442 7.884422152541887 11.238722208072572
Co 8.061961742115063 10.630476477281757 11.862586774486507
Co 12.37275294339805 9.388467473602743 13.192844164692097
Co 6.340062325859884 11.260887065669898 13.379308431480297
Co 10.823803727728759 8.208311572970981 11.96034153689238
Co 8.731343074212383 11.55111564128696 13.828756343785011
Co 6.209521121095432 9.081479721508842 12.054388917200999
Co 8.435816849357467 8.202593773407092 12.111120315752595
Co 9.967478338554494 9.22508267443029 13.873898691510941
Co 7.658642140882556 9.468364919297263 13.919081658048711
