41
Energy = -239.70953818 eV
Co 12.509515542290544 7.590137814488406 11.360639685987504
Co 13.272900708554578 7.14332660371925 8.976425151424948
Co 11.257384226330943 6.224094732088231 9.565010333014072
Co 13.857655371345999 9.181039205176978 10.03502092093306
Co 12.510174082821278 9.871793544521438 11.822253332940331
Co 10.803565902395427 8.693420301576465 12.963669062888165
Co 10.163052934402474 7.4406897916491275 11.216484826602771
Co 13.971042026665597 11.519177167194703 10.862796149739633
Co 11.061269416945095 11.073935852085954 13.331747492956923
Co 11.33116681989533 7.635701770014919 7.424736586114008
Co 11.481184517635006 8.595066402705609 9.536369555838924
Co 13.202764678354024 9.210040649185787 7.826892814450246
Co 9.448189945977377 7.478537744515317 8.831079719830848
Co 11.856912247307967 12.187462084575351 11.372444053043388
Co 14.437343348516572 11.116126576705634 8.696515656871352
Co 8.171370368473434 6.471156135548232 10.496118261775223
Co 8.334348881699476 7.905451838791007 12.619553658682126
Co 12.180009778448195 10.833456099804708 9.36457217882289
Co 8.910263111735103 10.138582159941508 12.89150833686415
Co 10.360102524259645 10.251047155499215 11.108961920668474
Co 8.31738469822048 8.842406673863223 10.49144298413147
Co 6.719094741404356 9.737455710305188 12.18726790884461
Co 12.642346876000174 13.053920418798915 9.25478224486172
Co 12.863618091383234 11.566468708029026 7.155048932023549
Co 7.441269201494493 12.025320598411714 12.827172009645537
Co 9.02179826686375 8.777933137827832 7.061555175137547
Co 11.092468997345792 9.931771096468161 7.110588295176757
Co 6.32500671366877 7.679504448305989 11.077519049040705
Co 9.561716443973555 12.362414507378977 12.045278339554073
Co 9.694455106469354 10.283609021789033 8.893597578696534
Co 7.150170655088847 7.953178942071225 8.688098547612116
Co 10.27538482685252 13.118738041313252 9.966262077622918
Co 7.973778317027613 11.166036655532832 10.634492589527426
Co 10.818465287319615 12.241247349355262 7.891387966825532
Co 5.787291242228698 11.783168923039124 11.297085379786356
Co 9.062991041881931 11.16689161109537 6.676079406169251
Co 7.502993512590649 10.200542391034004 8.211884146161823
Co 7.910742539404909 13.438608775444376 10.675599381693399
Co 6.048812736776772 9.764566404421611 9.985035797750955
Co 8.53246320402458 12.410144006489356 8.604074057056097
Co 6.331585070332612 12.078193697107483 9.120965771291027
