41
Energy = -239.9230488 eV
Co 13.099164339995397 9.28680581932727 9.683757063010102
Co 11.035026932353773 12.791572284873464 8.663185688672227
Co 7.171350661794271 11.97594349021141 9.903750881938134
Co 13.143710217977414 11.242798819723117 13.415362381106961
Co 9.125164851999028 9.22235879852202 9.7729005338404
Co 7.233380705062953 9.87128865242869 11.06503623419061
Co 9.132684329652168 15.390420196654597 11.222209331758943
Co 11.098132842766196 8.626394246019988 8.476324578287725
Co 11.009916748662075 14.825943623363012 9.961140478975228
Co 9.106507366822187 13.371871508390527 12.344257752682239
Co 12.97756491677704 9.421389001210795 7.330679832782694
Co 11.211395812917646 10.463188580357144 14.649202039635458
Co 11.063682165091322 12.75626439645539 11.083571189870513
Co 9.179941181969621 9.135432862990816 12.22911283963865
Co 9.068404412245396 11.34341276506092 8.646748418674678
Co 11.13537828230611 12.616057758494192 13.499149598342612
Co 15.003317432992759 9.986775226826342 10.895598998620208
Co 13.011817260042495 13.492897951392695 9.89161920439183
Co 15.020196070779651 12.02280716924036 12.206672827852568
Co 11.142915714946701 10.529008948260435 12.24691027216715
Co 9.089894203963386 11.308083350389508 11.076054138450857
Co 13.127974663077257 11.385186330634111 10.99473530483211
Co 11.058992684767448 14.738869174992413 12.351622748859306
Co 11.149873643684074 8.50179201389137 10.928621951589397
Co 9.06006618107389 13.458783887478921 9.949307275510549
Co 7.222223466566326 11.883801804080983 12.369315297710413
Co 13.137705965752653 9.15374645722008 14.497485557560196
Co 13.058791125821623 13.406816557145737 12.250097001019448
Co 11.088639784183759 10.61855132482194 9.76841579571516
Co 13.153720203099107 9.196173148869132 12.136704903485679
Co 11.049615583270281 10.731775304496212 7.366266080095476
Co 13.0392615468252 11.420229809683324 8.572927874394471
Co 9.172173302457336 11.172123992308997 13.500333540866368
Co 9.146887542699302 9.367131591755347 7.403481376134491
Co 7.164172498780399 9.978075464980135 8.705310698032491
Co 14.985893115399193 10.11430757911683 8.528954603677562
Co 14.968896800071168 12.110280021736557 9.75199976766776
Co 11.208813321703676 8.444747493865558 13.380417661326643
Co 15.08927155008677 9.940728588515688 13.265369672741441
Co 7.267773596921149 9.809458805457814 13.428840454652907
Co 9.30962172081384 9.110087797656853 14.597090033580532
