43
Energy = -340.7186922 eV
Co 10.847508869424614 7.3854882345915405 13.000779666204172
Co 10.136733567096202 5.55347605405781 11.539029333829237
Co 10.9545936069485 7.5120457535197565 10.403071616565148
Co 13.33691196593035 8.058024301881002 9.245381163037221
Co 11.477833959657149 6.663048787376212 8.038833290899033
Co 10.667406172614545 9.611025281238799 13.176401970643477
Co 8.400734019137978 6.381117087917871 13.10264856089881
Co 12.436810029062848 8.759316062524125 11.73936138119132
Co 9.39467902027931 6.139970775107529 9.069918946308372
Co 9.18445846784191 8.463812526675085 11.850210305871636
Co 12.325120919496037 8.254554032851706 6.372585472919283
Co 9.126686842052921 8.373937213799582 14.67255648465773
Co 11.110438321218652 9.216354413140168 8.563624129361331
Co 7.712004379046084 6.620320558732163 10.894847997245845
Co 12.585885141978842 11.179095026095514 12.477311526367641
Co 13.237261882367866 10.033285799997252 7.465738188218399
Co 9.610720849422433 7.66563855434148 7.05466609603157
Co 10.190992693235192 11.719630248186894 12.497553421188194
Co 13.011683278216042 10.3496700006523 10.007012904214506
Co 10.554973779256073 10.207860156931202 10.694002719046779
Co 6.846300890647122 8.334571141566622 13.04845839555274
Co 8.851100914884288 8.458065510064607 9.25141760426371
Co 8.184498358574935 10.384037341315977 13.2660342089953
Co 10.390126539379612 9.844209178958033 6.413342376316737
Co 12.063802948155264 12.311856737136129 10.773099883708243
Co 13.402366697566523 12.406605021554261 8.369862692013697
Co 6.613978034753209 8.618845652162701 10.790746026911718
Co 12.211774395754395 11.428108358528611 5.9540862615500085
Co 6.848639165107865 7.533589505943606 8.347364959415643
Co 11.207785181163645 11.72398161905458 8.403080806140606
Co 8.233278710510135 10.58517149902865 10.91564128757441
Co 9.475550775533087 12.701904855403312 10.25709800635712
Co 9.040448603578692 10.868538071784547 8.601604607034247
Co 7.786275131078729 12.877705157373416 12.173574483444655
Co 7.814612452217135 9.582764339906618 6.648763266223601
Co 5.98279329134603 10.712888456152832 11.781726876648086
Co 11.149292567781616 14.132791665964156 8.995864016599842
Co 9.385693088597527 11.814064152172646 6.082130977513383
Co 11.124558150848022 13.643184648431856 6.578866629400422
Co 6.620141623453819 10.168931543918838 8.932134962702706
Co 8.798755251448403 13.347568628368618 8.11813727183288
Co 6.920348818408973 12.29009259414841 9.669582933684032
Co 7.136654250283655 11.618179415958155 7.147488053849206
