42
Energy = -245.83644236 eV
Co 8.14157700830158 10.090776578806857 4.1844628050549355
Co 10.320985074815562 8.927392538158621 4.548653547884472
Co 7.856521677607903 7.802690095075742 4.787222483266822
Co 10.044656635121395 11.139883809765802 5.193861087014908
Co 6.440043942687032 9.437163951106372 5.92202669908141
Co 11.863624006472289 7.37449985617636 5.655204411439316
Co 7.592013118020089 11.452955128740832 6.126072128003266
Co 8.84709640367668 9.493555680905608 6.273168315181907
Co 9.677419765794923 7.242642355427654 6.111575305694033
Co 11.15587685975375 9.391192232140911 6.734357567091569
Co 5.9887268511068275 6.823266361070688 5.858538605609507
Co 8.08691434003312 5.545943923244209 6.668389393950601
Co 7.58834606998181 7.760439391864087 7.148668897007088
Co 10.471547134448413 5.3177219252223455 7.059269166132937
Co 5.299715658340234 8.316811927634223 7.678900962368391
Co 5.474391988847009 10.956166223215414 7.495263883328044
Co 9.810493537518518 11.18699689661997 7.588815725844214
Co 7.451526364050301 10.185791596234992 8.24055271134046
Co 7.896372664731748 12.51045992673201 8.12913940093345
Co 9.447263842060527 8.95174160407177 8.685668798990283
Co 11.35749100482382 7.41354970543756 7.910540893687193
Co 8.349031098050176 4.4802792040706105 8.81756242616852
Co 4.952820451861853 7.22549517054692 9.839105603973705
Co 11.091957314960304 5.430245003423828 9.25950770437193
Co 6.304273880845517 6.048206705915084 8.155530009404078
Co 6.9930036695897435 8.044911825734077 9.313447849276843
Co 9.119669819814412 6.586798237680942 8.643051955407989
Co 7.219742965976844 5.92007652102322 10.347896235717496
Co 9.097254451755065 11.250617799681523 9.789826209910514
Co 6.715240274868407 11.757980510114825 9.941236569839267
Co 11.419353315466429 9.900384300500367 9.091408799440826
Co 6.397782833188135 7.852540512441831 11.603282254840584
Co 9.462786499088121 5.559233188638027 10.860921116153209
Co 5.428541042584198 9.738551567924592 9.57418978009416
Co 10.986480047815085 7.629636499161901 10.181854717509248
Co 8.6273841210092 11.291338744991856 12.048471775798395
Co 8.72612591106022 7.7713786378269845 10.819904616520702
Co 7.433789517038858 9.798153968103513 10.882612312738615
Co 8.09797546951639 6.534820784797527 12.635693565976046
Co 10.108310629441917 9.653377354028729 11.118477624318476
Co 10.297522396043986 7.449737512504703 12.477698862048364
Co 8.576202766597074 8.972446668002181 12.81581964635319
