47
Energy = -276.03817834 eV
Co 8.916287128050417 8.958811980171916 4.971742621111499
Co 6.586592137482906 9.512948382486206 5.065732503946217
Co 9.68657807997077 6.604763450361884 4.813468901975517
Co 7.474048422305289 7.262338329411782 5.755499919540776
Co 11.201794612884212 8.335129768205004 5.449393950992126
Co 8.415089771907601 11.258043317904235 6.031132240892793
Co 5.717895072388888 8.487512603543676 7.1468577445830235
Co 10.24562473228597 10.042669920137085 6.788178340594136
Co 13.17680674503156 7.700198436235976 6.411246551057999
Co 9.525691791642412 7.576507901166582 6.861693944038986
Co 7.802249480441099 9.271171167110275 7.0089929058299525
Co 5.387551987361951 7.488222061692633 9.273829536359933
Co 8.98020408341717 5.4403343933646395 7.089233829891303
Co 11.563147940076343 8.284307590268272 7.963704139049489
Co 11.343611831134561 6.191291959096053 6.567262055859222
Co 7.33371724079405 12.890845510567026 7.256314803126572
Co 8.38723195932243 11.136827477176892 8.5157028237354
Co 6.132632294601372 10.886707829373659 6.960299962672552
Co 10.16236631255676 12.21804813642253 7.682385303947348
Co 12.954793133796933 6.437457181300822 8.330097550608809
Co 11.185608803257939 10.376051828017332 9.022806922469531
Co 4.774931739780466 9.879162048161701 8.821049523329151
Co 7.4896223745977695 7.109441291366955 8.19451788195784
Co 9.274814372626047 8.855233587550886 8.68446665294402
Co 9.61534122239088 6.380961766728346 9.169188965431918
Co 8.203637670813547 13.330044515163909 9.317176173854783
Co 3.9928143676289563 8.743083536144606 10.671561719771539
Co 11.162421397555326 4.871451582827212 8.392681323193692
Co 10.01959983704217 12.147386402608433 10.13361769338526
Co 6.19997177667373 11.754629217403188 9.126271059884221
Co 11.784370725907689 6.237508397872932 10.251412535530834
Co 6.937857295402703 9.367376602388953 9.417678408341953
Co 12.939439821799308 8.406988574528189 9.890286672255996
Co 7.07126258094049 6.037277539787543 10.179027576563891
Co 10.737044697309296 8.262626890127182 10.305194978944993
Co 8.323500380308273 7.7914161571865215 10.66410253092244
Co 5.621764521369941 10.394990033891487 11.027778869035526
Co 6.09043947464866 8.027362580224578 11.413997286472593
Co 9.18143923569273 10.080821239254128 10.597801880101015
Co 9.979165453417828 6.557244494541987 11.757866567514537
Co 7.663557790172011 11.781877131796945 10.970358376918465
Co 11.415139441969046 10.23651934569739 11.397532509893333
Co 12.023192394539278 7.844151622356557 12.128681678599431
Co 7.590721407730618 9.679323715374814 12.198805198037991
Co 7.924246038652306 7.382766474199977 12.867240504264577
Co 9.829453002237914 8.80589595408861 12.537171590898849
Co 9.562508045950766 11.262050702580114 12.506735917534417
