55
Energy = -323.14883886 eV
Co 12.047352414718802 14.598278264781461 9.438842913706846
Co 9.987793689460133 13.428166842993296 8.659684736817535
Co 12.392174846477078 12.346491808582451 9.114605236396866
Co 12.831973466136049 9.945588748054421 8.979194010579462
Co 14.309379762617317 13.722662884954023 9.502595654186806
Co 10.253262844896483 11.099732502291074 9.107413932445656
Co 13.312656284821605 7.801435004540014 9.441203950094138
Co 15.946590198280546 15.063115687158719 10.948938519624921
Co 10.035720402263545 15.591903236871088 9.477978192002382
Co 8.706640328571378 9.535667585598238 9.70493377101105
Co 8.32259740560644 12.310087575903502 10.10225750635986
Co 10.955731817521364 8.818965468095202 10.063628450833761
Co 15.060652976814374 9.439360723979641 10.377535311935656
Co 12.610981744627681 13.086316309572824 11.436051588026183
Co 16.304512994466663 12.770508460662226 10.331282925741172
Co 8.924274921381816 14.510769171113376 11.246297091466861
Co 13.011926568327247 8.831403007028639 11.339115547906088
Co 11.91155087322062 10.872243863104215 10.905706565041191
Co 14.810707850253582 13.335239340196072 12.012883350402879
Co 14.237292459686751 11.507222266108622 10.19565222189774
Co 9.722137461720472 10.4760646708581 11.428872863320802
Co 13.655140250240287 15.334007638274588 10.995676132188349
Co 10.498682304690137 12.851888923028811 10.773352164719734
Co 11.169858122184056 15.213309741731104 11.514795468384733
Co 11.003927610080991 8.910045181842511 12.606234288878172
Co 7.5144428003525725 10.656845702800831 11.660318273301705
Co 17.06784754514298 13.643602260862579 12.466594394204494
Co 15.05880440015404 8.934539732242719 12.655791930084826
Co 13.732272399938068 10.933292717649246 12.414472280762096
Co 8.729299116661325 12.459383725958045 12.429291774964094
Co 9.746301565012791 15.549911368493177 13.33160831543904
Co 16.01280546041352 11.261285355884642 12.14788595297064
Co 15.392356631697936 15.20649418455142 13.331796055739371
Co 10.89386682588481 13.479937936146507 13.217843568010622
Co 13.234746697685095 7.281513650723214 12.846384475489877
Co 16.87159998767805 9.830288533880063 13.619712112231449
Co 9.086417924972 10.38223211625989 13.641200327681783
Co 11.80926725202711 16.751247383324486 13.212280119179711
Co 8.175736450233984 14.11023894299395 13.78918222254422
Co 11.39570152670987 11.13844471253561 13.385506383716871
Co 13.260343233234737 12.606161652300603 13.924509839584074
Co 13.091983360434106 14.817950847138484 13.137554982013313
Co 15.661842235349068 12.935426972809235 14.19707383587953
Co 10.366599370499959 16.946620335907355 14.961845159447131
Co 12.94199067205409 9.210072991557118 13.921649743507432
Co 13.497207183667806 16.49324941389055 14.728856280554506
Co 9.4470047473448 12.386645573359086 14.732142084638491
Co 11.63727757915034 15.038070569476393 15.014500250804655
Co 14.966674224975177 10.665287528794906 14.420458864933366
Co 10.62909409383594 10.371163103221908 15.450639946715192
Co 14.530004051523735 12.23797003963343 16.176888367812573
Co 11.547007724596117 12.692174588330097 15.535127555035228
Co 12.869211970326967 10.80673527603189 15.54309508272437
Co 14.011482919316295 14.353262107716029 15.322197496912183
Co 12.855794777605775 13.477980095748343 17.1373642566936
