54
Energy = -320.40260469 eV
Co 12.536843794857829 12.88893428875872 6.465276757882308
Co 10.300361522055505 12.934190019831833 6.034514286817344
Co 11.144253510823185 13.855394004388094 8.267077279074964
Co 13.26245039833726 12.797907922620515 8.704126391618562
Co 11.42830283884023 10.694455532428485 5.7095409941375985
Co 12.154256781467492 14.499168578015864 10.237726373884144
Co 13.545448668887747 10.97025117224475 7.235630590223081
Co 8.964665285983626 13.030563741769923 7.9618558401077175
Co 9.663968538063411 13.709355683873275 10.289226572200121
Co 11.093340542795898 11.549256577741998 7.836764956707689
Co 9.206173665704808 10.94293925211962 6.605724788733496
Co 13.548848313697833 12.775686841439207 11.08409716809099
Co 11.478261409439517 12.229228165791305 10.117649774028774
Co 12.701112660164606 10.375576280136984 9.333660997250066
Co 14.747636686795337 11.265136594023922 9.824331291254007
Co 11.999950957882966 9.185471943199879 7.384038733538021
Co 11.299873403158164 13.452922082794506 12.14889502255027
Co 7.4057317180102675 12.899458583554978 10.027093071643785
Co 8.544455662240473 13.311888479192792 12.304479148583619
Co 9.997056815777574 8.754450658437378 6.203656521520387
Co 7.405225408825043 11.221303537410703 8.214664150208069
Co 9.25240433164387 11.473020380460536 9.615420680787228
Co 13.150203634850424 12.642211053631298 13.404830754524088
Co 7.734258057663898 9.190042850332963 7.156055676913468
Co 9.885457788206963 9.401756511293128 8.402389578154615
Co 14.665495700196207 11.073929211792493 12.320783912989626
Co 10.704704426998699 9.866716878603148 10.598032788205598
Co 10.849604975011678 12.064058827973026 14.037427862768006
Co 12.672790318006896 10.661128933135096 14.419989286776424
Co 7.552934624296132 11.260291588331073 11.670070027196976
Co 9.944163137243741 11.576601498276242 11.935688433113842
Co 10.676191259909759 7.177747793491058 8.090744006638737
Co 8.02436179384653 9.535401841062791 9.878922275179821
Co 12.394970503905476 10.82522744087099 12.023029898138814
Co 12.113624245303768 8.095488072711147 9.625330415697324
Co 13.953636508949709 9.290388801951254 10.873851629690279
Co 11.976733358847703 8.317291585620747 11.940883843933698
Co 8.672389178601062 11.077102964165165 13.812201976085436
Co 10.730681950251004 9.77091701565351 13.41975485464602
Co 8.323494155265887 7.468848810705334 8.521982419787854
Co 6.178108425988794 8.709625954853548 8.884135075962798
Co 9.780384595452018 7.741324175254054 10.425261303437455
Co 5.982251356456108 10.843133328767077 9.985618642910207
Co 8.725024701343283 9.194453623370299 12.163305863183364
Co 9.564194465538366 5.619332048560855 9.456646310660538
Co 13.745220033274357 9.090141999844276 13.167577221939794
Co 11.37755071080851 6.2069568215864175 10.899992434180163
Co 8.869885078579198 8.758210119661928 14.514633514276378
Co 7.460732660116012 7.275240773162295 10.668478713173023
Co 6.877233680944765 9.563636452892784 13.64305433429361
Co 6.302973942927177 9.064567599805425 11.48531699583663
Co 10.086802336166215 7.384597363395138 12.886856516456625
Co 8.95780593039918 5.80478839895748 11.701599390097787
Co 7.687691667400374 7.315480466347672 13.048536437157578
