5
Energy = -21.88692904 eV
Co 7.455275317545292 7.5242917191274366 9.25467981174745
Co 7.80937906264262 6.435784644578677 6.983768889483593
Co 5.924031695525561 6.766893929203303 8.00037453540985
Co 7.480833818541093 8.677867043583204 7.425522848842227
Co 8.689978366231541 8.003341421915986 5.734694401580633
