5
Energy = -21.64831764 eV
Co 9.93678850426257 7.437468727595228 8.563699252537617
Co 6.568853146914384 9.473110661444682 6.7658741003533835
Co 6.232721015006032 7.464874235443228 7.547740257972366
Co 8.263062015889503 8.49923022636987 7.69966998983383
Co 8.035176484520255 6.3676381123771995 8.494429670129945
