55
Energy = -315.68684583 eV
Co 17.58252049651088 12.818317512907972 8.706317757648895
Co 15.414360264395754 13.610041193047275 9.004565248581256
Co 12.812430618302695 15.369237129624373 8.581982332260878
Co 14.84807176841392 11.35540974471694 8.605897488692449
Co 16.651061130965605 11.119307660062903 9.874720105802385
Co 13.773986015952293 9.310587401545062 8.475675963195313
Co 13.089490888533751 13.259087058684075 9.384708979801772
Co 12.6081378545758 10.98649177403088 9.406890570542965
Co 11.642161497476733 15.031019505249335 10.517237647134158
Co 16.917510237936007 13.387808752836733 10.817461961865119
Co 10.692321424421639 11.524187561709907 10.43788912287584
Co 9.347059793013663 9.757611980456648 10.526786003314195
Co 14.08733929941439 15.295870751578724 10.453075576803228
Co 16.259555816545546 10.412004889791962 11.998556303081237
Co 9.791281685953571 13.610637929186126 10.462905631851509
Co 14.69458067688802 12.300179604132069 10.912931308216454
Co 14.46941236205147 9.722338503716927 10.526402569034747
Co 15.300826859136917 14.376561232893927 12.173803715839933
Co 12.454798096368863 16.960594464435218 11.455135436118997
Co 12.667653945636701 10.856850540826962 11.735260008257587
Co 14.619563371116506 16.688748506209187 12.378779078819681
Co 10.439985861121402 10.119444951787239 12.469211536097282
Co 9.723419747288247 13.640021429089233 12.679563767413148
Co 8.695541578304807 11.67077705286756 11.606284389429753
Co 15.924892177202869 8.292066305679397 11.560670156659638
Co 12.225324868900248 8.580800796128301 11.919025428591768
Co 11.980680721750062 13.105683151640756 11.678681214101694
Co 18.04760584165308 11.718108110379603 11.807793738982255
Co 8.896791066025806 11.8292811390432 13.847568120720565
Co 13.05957612822179 15.045224917480752 12.70849559668737
Co 13.01981798648297 7.692586605990313 13.943755728292228
Co 9.067476103832766 15.392129836248436 13.907320261042784
Co 14.388609526982135 9.049768084861302 12.928910998402793
Co 11.08458442161425 16.126200479225147 13.168106449517124
Co 11.209325601227999 11.865906643165346 13.808563886670026
Co 12.34541210050325 9.83448090675099 13.973053544221186
Co 16.252740785094794 12.549170236117508 13.076570019876796
Co 14.383835464481438 11.331030413124541 13.160920224108876
Co 13.226740024182698 13.14516016477982 13.756098661334828
Co 13.147042540585229 16.77204231742578 14.297183484184256
Co 11.158791333889534 14.103984547800321 14.47443683205162
Co 7.9456357701507505 12.127183979337754 15.8776467992934
Co 11.239887135992982 17.897740749145722 14.597616602670842
Co 9.053634844417555 14.049840095990003 15.656838217644363
Co 14.924776568203736 12.726328192913067 15.191147706877002
Co 10.198445639204978 11.99480827742996 15.940033513868897
Co 14.207314351238876 10.398539494930574 15.191202136762582
Co 11.515706359411274 10.15481982990392 15.962785740554017
Co 12.668258605263388 12.107092979883499 15.85027806795662
Co 11.025346782474852 16.090389749029967 15.83817204947698
Co 13.208648269976335 14.625819470174035 15.595406924593897
Co 11.230631031835708 13.917126181963615 16.916065638646234
Co 13.043621506466915 16.606714676928604 16.61638783083193
Co 9.517803027716996 15.42341167619208 17.319098030470318
Co 13.45005523163012 13.495505965889203 17.4702069991701
