55
Energy = -318.18533218 eV
Co 12.295527127495854 14.37814420698927 8.908385993520692
Co 12.81333315255865 12.695228781281859 10.237023870602366
Co 10.517416991272164 12.091180644184035 10.465328539219264
Co 9.491142907222294 10.839350597114251 8.904775454691329
Co 10.151792229823865 14.20949612894399 11.100166986911953
Co 12.22282182046684 15.259021822286071 10.968167496979254
Co 15.894183888494192 10.5020096513723 10.636845767657004
Co 14.128788357225844 11.227796528262202 11.746282170778798
Co 15.857751729812284 12.792641114903585 10.73343983319156
Co 14.515986732494543 14.502581767387792 9.809518899934936
Co 16.541300781772826 15.131300491178756 10.838898820062365
Co 18.27465891128647 15.351874666814341 12.591582669207142
Co 18.16458866796483 13.427533914611871 11.41211545337636
Co 11.779007515500625 13.05477172069508 12.404435329245064
Co 8.478314273513629 11.000021702444222 10.990171644978057
Co 10.284727682030145 9.40358410345508 10.37167356437984
Co 12.154626563326136 10.526302691497234 11.048979985959836
Co 14.469595234254 16.032397687867842 11.60157410295686
Co 12.568827330347336 17.340261546711027 12.08925061269579
Co 9.323485421378745 12.5766105288093 12.723383340528033
Co 14.00704596555749 13.771752458734063 11.962765945246415
Co 16.48901872916253 11.272097956894763 12.682846903587254
Co 8.555605789548036 8.991871091436876 11.916568410969415
Co 7.152710286696214 12.013526614422013 12.456259282590535
Co 14.678289326657302 12.36148333985782 13.668988329501639
Co 10.358102426214913 10.397811545357937 12.540492515696338
Co 16.395181888106723 13.822404818332375 12.820370113246236
Co 12.339409143544925 11.129711454022761 13.72446949509761
Co 14.841618665138888 18.18355429903656 12.31735768973176
Co 10.69769145946174 16.95838446819517 13.27394339667332
Co 16.25316135927108 16.33525964991234 13.037410212418205
Co 8.115385536629224 10.382703791306941 13.617751271260321
Co 12.562567555053958 15.328336355228341 13.32246211322876
Co 14.73295307132508 14.755156200405485 14.143553427826424
Co 14.626221843024434 10.004717883618417 13.859773735899239
Co 12.778432553377431 9.075326949533771 12.7369651222821
Co 10.31166439558706 14.754445869139046 13.330813445947665
Co 14.050598319284559 17.05326558045933 14.049086426737501
Co 18.110586755189015 12.558684936709957 13.605369781324523
Co 13.65899976914712 8.027362891505774 14.609301011711898
Co 16.32612793019132 13.04856459169758 15.12509937415926
Co 9.96981014843101 10.81591697954108 14.807399938719826
Co 12.034488472379667 17.312509162756715 15.007803664736372
Co 13.572291317780195 9.7316257727734 16.093963532810168
Co 11.648794124298247 9.28515688221663 14.950231626129517
Co 10.597678892454361 12.953435306558744 14.767473837512195
Co 12.864414949368873 13.27581733424673 14.628408236452257
Co 17.13344986278794 15.11683957563245 14.801571468280972
Co 15.33939771077309 16.206018147795273 15.79006386334064
Co 12.197888745425967 15.181902192747495 15.698822358824984
Co 9.95456522666938 14.908440577549147 15.632118887982552
Co 14.479463537017443 11.775783811673842 15.819647467828196
Co 12.007223126938399 11.504687456880234 16.06539838487075
Co 14.262631514631426 14.128399449567388 16.367537619361947
Co 13.518361723444723 11.784643746256611 17.735620009947713
