55
Energy = -321.14061637 eV
Co 13.890662025318164 12.188101897483499 7.715250399293207
Co 15.832925684165065 11.176206660389392 7.431721657152858
Co 12.67428457177163 11.401215292785706 9.38951639990966
Co 13.155714556127341 14.184355714230643 8.582505865255918
Co 11.001629910481613 15.179333686893528 8.68022261906139
Co 10.45390630473132 10.62798097844388 9.456547209273182
Co 15.180817789453856 11.03416016692885 9.6529859856847
Co 11.149116154546235 13.040297163778437 9.445857224751263
Co 15.905522457658776 13.066155210753784 8.697986354969713
Co 15.072132963758904 15.074046942076274 9.601278392209588
Co 12.270569354797578 9.297085496310048 10.186376576689414
Co 9.154200586243658 14.090469832452783 9.205179396013662
Co 13.461012242359635 10.821197476482652 11.470332715459397
Co 8.865522397943815 11.982696170536933 10.40436819121819
Co 14.223489122878325 13.04138871009994 10.339879740493343
Co 10.808714231986977 11.492155559809897 11.547745379799588
Co 12.366305236011684 15.08852770616852 10.583913862951892
Co 12.367313798994001 13.061240841103157 11.622569326279919
Co 9.978854785061726 13.893413749550108 11.321341366040775
Co 16.36892641457739 12.844945460957613 11.170208563741694
Co 15.127248048648335 14.752033379569111 11.853662510898413
Co 9.117027464164497 10.071301133466477 12.074493994498116
Co 11.499330195829032 9.449608864014166 12.311494579579326
Co 15.70525355868358 10.659712348750483 11.964161037762253
Co 8.918434564456808 12.407061038787317 12.791773135652793
Co 17.09844494756707 14.274969565596106 13.047211482962668
Co 12.555839630268158 17.0330158378843 13.423746931121832
Co 10.915476019053923 15.753862314498216 12.347334788377681
Co 9.059281764873871 14.72735988225986 13.437881567731836
Co 13.05356128433515 14.874058606749061 12.95619218232141
Co 16.49782301668445 12.217185340438618 13.680084036920183
Co 11.04812003066087 13.371590423571167 13.51686658011349
Co 13.953951720620582 8.833410791136064 12.442088900982881
Co 14.716809163857048 10.295043844535977 14.061011300287909
Co 12.518034875019127 11.37390641239323 13.532188785830234
Co 10.253367250359414 10.925220795968068 14.031957925767449
Co 14.447529619806154 12.639885165325712 12.795884820201977
Co 11.093463469609075 15.438292870048716 14.661835384590557
Co 10.023543615552727 8.710357802019471 13.879969330757259
Co 9.467858845151355 13.427918110494824 15.302337639750526
Co 15.15396431263831 14.514265409720588 14.272446810368542
Co 14.996453959444825 12.202084799679861 15.46454929273326
Co 12.481620332360652 8.90143372982435 14.262623837732152
Co 11.31580757800657 12.138584950080018 15.648134824907043
Co 13.104376859767962 13.405271462251099 14.845841326705733
Co 13.354548748092213 15.820057898316875 15.187789651189268
Co 15.006462438102938 10.24151426087326 16.47610645494393
Co 12.989300032820799 10.569121058583136 15.668960978871757
Co 9.784556898311237 15.235465062202133 16.520183644249613
Co 16.749685532063268 13.684906465052599 15.634737398706536
Co 11.91626199974365 14.396080912975812 16.65304933376219
Co 14.595724534671593 14.27700755035826 16.619286119148956
Co 13.278788075309821 12.344436515615044 17.164701876934135
Co 11.077640683015435 12.715152148250287 17.807240682405478
Co 13.197122440777434 15.988182630669584 17.410717724179086
