54
Energy = -312.09781577 eV
Co 13.114052138375781 8.608144245558604 14.448225291859545
Co 10.364451858935283 11.941029415143742 7.950731113331528
Co 7.6621752006901165 14.308674763615539 12.591206384650372
Co 14.879232317692495 12.771199027654166 11.371195611419875
Co 11.685015043676799 15.0588061863015 10.504036763893627
Co 8.658768346512238 10.483115732354445 7.380416198483196
Co 13.74785064663348 12.25138978468313 9.375646267317137
Co 11.350290872726323 8.433279448631051 12.977428710116362
Co 12.126007776049423 8.684516141293148 10.619671417399976
Co 13.340665742947273 10.894675437445825 11.265995960572386
Co 10.717991571085962 10.473626918501278 6.260376555609994
Co 15.335518905197384 7.156781547086356 11.910547214692189
Co 13.607390799762747 6.593702549755997 10.71177437148072
Co 7.391896188292117 12.162218460511285 11.559915922224873
Co 10.99636345065172 12.27313430603763 13.637292694061506
Co 11.5985970396999 14.458438932906475 12.8287644933512
Co 13.198408334169748 12.769399291270242 12.879389457038394
Co 11.258907462375095 16.637156985787048 12.172450160494357
Co 12.585172677618818 10.586756232668062 13.482342417606919
Co 7.870472111626351 8.983763672147132 8.948454854836191
Co 10.698131783477805 7.35486557382377 9.038747133251018
Co 9.665755033723007 13.16631362178784 11.870993340901467
Co 9.503247105595623 14.127505565345293 13.954126546080046
Co 10.047359117657116 13.941353588523851 9.398784718811763
Co 10.506174040084582 16.06254075294432 14.16835707958605
Co 9.806602385730121 8.19300388502114 11.164610167758001
Co 12.071754294260309 13.480411891815438 8.431974044332614
Co 12.711941640237862 11.272652789887012 7.4916382996742374
Co 11.976987881172155 5.479802617978491 9.375948614896865
Co 7.061652601937906 8.470120061738179 14.002725235238389
Co 9.595520075329272 8.427005249728449 7.294393875859919
Co 10.545693566216599 10.100943492647897 14.426634765071041
Co 9.925478655872118 9.59310631997301 9.3223493901205
Co 10.64892441464096 10.539861461161236 11.869692729894286
Co 8.948827242939151 9.073967285145592 13.144717150194715
Co 12.977344398899506 7.501687069278557 8.748798633276651
Co 7.908539804193477 14.016083131396044 10.23782005941283
Co 9.45735047782786 15.4147906268866 11.576357384442057
Co 13.144635845504162 6.832016032470248 12.980799548961006
Co 14.85262222365243 10.884719888261497 12.93842764751261
Co 11.745608458148032 10.920058977182128 9.558541988538966
Co 8.19911559548427 9.970197764263997 11.105781221924612
Co 13.719595109955337 9.702148788437565 9.167404668383647
Co 15.911467051933855 14.569177807384767 10.562105759400213
Co 8.03924386765673 12.36682560186053 8.545411079302221
Co 11.719825236154401 9.215331982936972 7.836768052288804
Co 8.765001396407344 11.438687796190752 13.329750205916834
Co 11.815816456762311 12.801377112715329 10.968833967073973
Co 11.411920573931067 6.542517412165346 11.322583795607372
Co 6.820657708793695 10.29616153289819 12.843457390361928
Co 13.95149651674603 8.828973052880807 12.251599914967956
Co 5.936735407838859 13.774594578116991 11.164692628336914
Co 9.368619984139913 11.763597114654328 10.15349583569096
Co 13.783859909575812 14.421678770142051 9.937680127984676
