51
Energy = -301.50718093 eV
Co 8.169052341461263 9.268601187300625 8.069740284921526
Co 6.798937512379216 9.519150320859705 10.033763238920757
Co 7.0284754421924704 7.471395127039324 9.008483164742556
Co 8.97803612494528 10.526412557297643 6.311612306020634
Co 8.731346054746218 7.987610097162829 6.277944661076778
Co 6.628190376322979 11.937883365445142 10.491197488151478
Co 8.229992635545841 6.366366501288626 10.583719652862396
Co 7.3185984318532835 11.448323601426328 8.110732230814921
Co 9.187201608512742 6.880439562768387 8.278598609350187
Co 7.532320060644428 8.190918510310299 11.875232981316868
Co 7.6756191723330565 10.528644023537828 12.103324113391793
Co 9.161304662219992 8.521562179597261 10.137611368875335
Co 11.235667133563846 11.312912236823802 6.327921648308744
Co 8.299810799397568 13.345614334998034 9.399486725075707
Co 10.803244185451572 8.986999068514635 6.367045579117425
Co 9.015277611097499 9.122775996883345 13.588987251979974
Co 11.602064299976973 5.597439583678232 8.291921446917913
Co 7.260479452603678 12.996782150607972 13.24708344053904
Co 10.529958251871022 6.297657284545056 10.234586251851516
Co 10.776728711066896 6.7170840949042105 6.544711105838239
Co 6.897313226392556 14.112391578219135 11.225096118957293
Co 9.716236054412278 7.359506818831403 12.200269356903213
Co 12.121205316600351 10.36452799612836 9.92809595650324
Co 10.547342236183484 14.148312508807127 9.006431291031129
Co 8.777929403105812 12.629111742610862 11.564847249113061
Co 14.391321628837522 10.329285103510953 10.98772271030745
Co 12.850473141506567 12.395643123071139 10.800938271350253
Co 12.528994919486655 10.379966791496207 12.286036445026948
Co 14.02706442337244 11.2567154775808 8.901896954174415
Co 13.704810432135153 8.724227009944796 9.410454451467126
Co 11.141779742298755 14.127300980952288 11.310692745404086
Co 11.454847569019769 8.476149278054615 13.281331303788313
Co 10.591507678395208 12.162732971020343 10.141323466926481
Co 13.587439271926657 8.225703182043636 11.845205179338214
Co 11.02174536267305 10.50361067305249 14.22041336109367
Co 11.117633999887301 12.216241120905162 12.564328429623774
Co 10.118084764481408 10.16718208415771 11.835639733519988
Co 12.002363050291548 12.253221958254468 8.327071780640022
Co 9.015279974326113 14.951428303551483 11.089098685479021
Co 12.670673905865502 9.841780151266962 7.5799054580656176
Co 9.057048076194489 11.538527551885942 13.694591279889782
Co 12.903661337205481 6.6645180377593505 9.88906184902398
Co 9.517200950255987 13.963789494074337 13.261986490297431
Co 12.000406623272982 6.392590283712644 12.105789740530515
Co 13.018036865324042 7.426405764642056 7.407252032089667
Co 7.686750967661052 15.292719110441254 13.033269699759213
Co 11.51199214422775 8.361778943077436 10.942125610644231
Co 11.248553543633527 8.036405728548203 8.611148674257409
Co 9.533370044295388 12.297604590437164 7.7884691040144824
Co 8.656767162773512 10.899393990284388 9.881869925317984
Co 10.363954247990474 10.220748798909145 8.338026027608622
