55
Energy = -328.88843981 eV
Co 14.9349527646489 15.228124017353318 14.773836661229549
Co 10.978118904680453 11.52034781628204 13.94145314462794
Co 14.835896203252434 11.498517244309612 16.890468552619023
Co 10.900048065595142 15.148538491994836 15.998930842917579
Co 15.028483846348728 13.945900511764222 12.664295854429382
Co 14.820399354247133 13.94899716858503 16.908552853892797
Co 14.861913598791332 17.573094506718192 14.758150956585874
Co 14.970215428985599 16.414761976832953 12.66259280192567
Co 16.728881202510788 17.529075726138995 16.194145509078414
Co 14.940207081999878 12.667128505182248 14.776627938756706
Co 14.980317187374206 11.476939394295021 12.667800157907102
Co 12.790247932663203 15.134916614521055 17.54523470567805
Co 10.90642718971871 12.734187236298295 16.001501294151364
Co 16.942358917909196 15.160934115432815 12.07723398777876
Co 10.884813454301419 13.943917769453433 18.016024687998407
Co 14.87966218358701 10.321986803744522 14.76583478968224
Co 16.94680381831605 12.735942051373453 12.078690337104321
Co 16.840376710097836 12.71308875237182 16.266041213517628
Co 12.832514269421365 13.945172030612447 15.458002203604844
Co 11.012011444754354 15.178060966787962 11.82849220480467
Co 16.746476396320134 10.376939494102047 16.20015765868786
Co 12.86657610226414 16.406775527892513 15.428882015817363
Co 11.01837441221568 12.697961364291 11.830146277723752
Co 14.82560827602149 16.39891905573531 16.885670333434895
Co 12.877540622251356 11.48324499882716 15.433740322176627
Co 13.023416214131293 13.941943224290023 11.197840485318808
Co 16.83523642252 15.191916040806747 16.263040477485145
Co 16.95295212669814 13.950923476566405 14.1504634205377
Co 16.974602340581004 13.947651615604107 10.05301624686019
Co 11.125431203106052 13.937481101522494 9.786627324333224
Co 16.88002669272528 16.362304829750943 14.146804210917054
Co 13.002802296801457 16.388429523009133 11.203666352350139
Co 11.13775374083985 16.295712084886514 9.735008661636819
Co 16.891311714087866 11.541148466441742 14.150920126966358
Co 11.083742173810316 17.503909946037847 11.872873022586939
Co 11.149284327298162 11.578349622152404 9.739294739057437
Co 12.922462238855006 15.223854539193866 13.320944346229943
Co 13.014656440732217 11.49439653919884 11.208693333303307
Co 13.11640234578491 15.142454593936606 9.173475009287204
Co 12.959672093270834 17.578693825411474 13.31269797784994
Co 11.102452600722147 10.370821829115751 11.880615384989262
Co 13.121497339593963 12.73815086947709 9.176060450914832
Co 12.927834373657014 12.66288665798166 13.323516788437065
Co 15.04890592465246 15.153654962661584 10.572757959579912
Co 15.043187912627708 13.943798598886609 8.541250935040035
Co 12.974631095812498 10.308116725063176 13.322730335140772
Co 15.053980744815972 12.73625790105314 10.574894229984675
Co 16.719534197455406 13.953804998583163 18.30260933280909
Co 10.930486659228631 13.940194972749866 13.934911954178169
Co 12.795733734830605 12.758932929469898 17.547942083491677
Co 16.684087134096764 16.31171702000737 18.338838326499076
Co 10.968953571030346 16.360400147404146 13.93700257906506
Co 14.754099984447738 15.169127429253603 18.915034490695938
Co 16.69304954550269 11.595315394902155 18.343632307015145
Co 14.759662214795851 12.73125276646926 18.917404574097368
