55
Energy = -316.63029246 eV
Co 10.729765947169618 12.627998051374353 9.435185000941336
Co 13.620861307563336 14.839375933865004 9.023656523455982
Co 9.983830038563237 14.635541865235474 8.878224009603604
Co 12.18442328567804 10.992724689226897 10.631547345685716
Co 13.041244263050562 13.068199855740499 10.29625036527322
Co 8.625788536143672 11.827628910746842 9.169572301989923
Co 14.752015771314 11.891761467579048 11.405667640656835
Co 11.511734571722231 14.800448981654695 10.52417668310727
Co 15.276179284360383 15.176467042877086 10.552730662969145
Co 11.001903584871657 9.095139145382312 11.34269309089389
Co 15.072016274402152 17.351299364539475 9.813352183414578
Co 17.13569805651852 15.710876800513702 11.476498454517374
Co 9.704804598988515 10.785036384311455 10.883837821143372
Co 12.935352129265414 16.73710910164508 10.008892303872765
Co 10.854250020395048 12.728736451376133 11.694809334473812
Co 16.570868766725003 13.491076269862942 11.952490648358719
Co 9.039273504600375 13.90978101381511 10.77694961514326
Co 14.333107704591207 10.20419657405383 12.944512388259149
Co 12.897683609243584 12.255073095410264 12.614607183766452
Co 7.44644916578632 12.329342114626328 11.019440673734398
Co 15.765666917656667 15.361153647031495 13.18885813233814
Co 15.164800734278936 13.10402135566935 13.739449610328046
Co 11.182336752951045 10.571325139009579 12.952098509425275
Co 11.712849382805356 16.707856469874425 11.918356239777543
Co 8.888011036018163 11.905367393196302 12.736306612751466
Co 11.545477937096772 14.61979259442584 12.96809905786457
Co 14.211812902175076 16.79945263131956 12.008258060872974
Co 13.782438386727764 14.432481272931355 12.172182377021272
Co 16.611530239660468 11.258867002131435 12.667301315668572
Co 13.585812563806034 11.380900753998612 14.642618349419932
Co 9.680420136517641 17.58290503856724 12.464716137824642
Co 10.599278733789305 12.617837894892453 14.097491924731974
Co 12.835716246390925 13.591639731621393 14.59486001422351
Co 9.503414460407187 15.376647149852799 12.400780974158934
Co 8.76934595594846 13.946638637881788 13.909447750317492
Co 18.280139786809386 10.596546472942704 14.219735063556628
Co 16.412885080566006 9.135162612235959 14.01703253980776
Co 13.023215398606562 16.309357420037948 13.859246086768668
Co 15.832069936605665 11.177740588601935 15.009245830883549
Co 12.200166861211441 9.72059742347847 14.940372915179829
Co 16.51404875458469 14.478628115197562 15.363755977896705
Co 17.46607036423239 12.782374333903729 14.179063066557822
Co 14.277897723508717 15.10172598639269 15.055873371808728
Co 10.846244823705607 16.629908628725353 14.145555070080743
Co 10.121597117415158 10.638518301079003 15.123932996160171
Co 16.231649105804347 7.900822180469395 15.861801312539907
Co 14.478402426897519 9.248325537773956 15.35484373361998
Co 10.821927567552434 14.60415057517314 15.288254563177341
Co 12.571943372847903 14.142823776171396 16.70873404558264
Co 17.287338197511094 9.935997910054514 16.163496921567937
Co 16.98839556390058 12.260865854922063 16.518743027805417
Co 11.852326857129816 11.92528578477424 16.129382761662278
Co 14.698019533153088 12.994004699276873 16.218167559806332
Co 14.755944164024074 15.0150299651683 17.266145996726944
Co 14.015845032616612 10.919724483246325 16.902988336693006
