52
Energy = -305.90115582 eV
Co 9.014517158543237 9.192113204244139 13.417251040811122
Co 9.823377087025458 7.141962607363243 8.321169842501428
Co 11.182395130791527 9.013716155510217 9.403072821765518
Co 10.301156161642323 11.356642000937528 13.251845335026024
Co 12.37359770389675 5.681183984710504 11.05596152898223
Co 11.270151873999247 9.244202279236715 13.527225136841007
Co 12.427885371631383 10.595193270595104 8.083476417687319
Co 6.633158106091537 7.1592249453163355 10.648515024889246
Co 7.814749969748582 11.973835105401758 7.979811516015824
Co 8.09504978167977 11.307996812041205 12.392544268015119
Co 5.978106607588864 13.35904115200097 7.896356016631752
Co 13.555844121323595 8.572835524762375 8.29068600716475
Co 10.42246523502468 7.118313442566049 13.423502869796923
Co 5.798970502410099 11.292261563188182 8.87212290118886
Co 7.442373508971825 13.14220687373184 5.942651294372426
Co 7.400343898433473 7.560195308825326 8.366398236251912
Co 12.661075909556605 11.137424070680545 12.92044483521333
Co 10.598768516187725 10.750738517002038 6.544468478534981
Co 7.321355044571043 9.194098991548222 11.735410998170751
Co 8.787740793540491 8.35312264385076 10.014452187846782
Co 6.0736747096188735 11.316875481032179 11.140436646241996
Co 6.011112253794949 11.444431489244101 6.441589721786038
Co 11.622990882509699 13.09379845780673 12.243661595795151
Co 8.028443816175924 10.671305159392928 9.98284396476001
Co 11.78380477474552 5.1993348907169725 13.2593845330389
Co 9.123672285007078 9.303791313165116 7.648102231855101
Co 13.819797400632092 10.218236908095735 10.01023744759429
Co 13.393116721423045 7.689643769579073 10.414951085143663
Co 9.966766684668263 9.882706845923213 11.341501489633005
Co 10.099061076971493 11.154225589470883 8.816653972114647
Co 11.384433955041088 8.546876499745718 7.083552865962055
Co 12.614076556889561 7.323479349369665 12.689277713430073
Co 11.568097238132271 12.74147295863472 7.896524163898393
Co 7.510093720705665 12.94873899306848 10.056375758859723
Co 6.879823961644352 9.65409417890675 7.561453256578171
Co 8.309205098311535 10.88168111616662 5.965001900314351
Co 10.671681168538678 5.162936012341839 9.541823813519796
Co 9.586082288216792 12.822917957839692 6.717298225761036
Co 13.640795145946244 12.414118895871594 9.045451805082847
Co 12.068199140805934 6.869354131715538 8.800563597099092
Co 13.803438483055626 12.307443731003502 11.323849279203175
Co 12.399710218566858 9.354072620484379 11.529305934097628
Co 8.097792492092662 14.313919148253373 7.858902786837276
Co 8.518869867109146 6.038526253140586 9.989209379120059
Co 9.734151001225511 13.473298077076954 9.08423905346868
Co 9.740010590877194 12.377793446399068 11.09348116574371
Co 8.600724385984138 7.301275713026119 12.056378251369845
Co 6.199601542112187 9.189120871678636 9.712769209374995
Co 11.839865341664407 13.68326038750677 9.99705901195858
Co 10.044776480400426 5.412597731687859 11.797083825979415
Co 10.799118961784435 7.378096908501036 11.069404424581567
Co 11.872986829066937 11.393324216018083 10.453322688465498
