5
Energy = -21.64811514 eV
Co 6.329293466963131 9.24912354643705 7.699528067858595
Co 8.202151137454566 6.054008841872774 5.457036508534127
Co 6.787960330088535 7.397629993419989 8.767170417008945
Co 7.24633699487625 7.668588045313113 6.543544574767555
Co 7.811185340622797 5.704699641070263 7.570137332061893
