50
Energy = -294.87749571 eV
Co 11.357976819805383 7.845450325049588 4.147326367543467
Co 6.673253102463971 7.794025320785039 4.8350733863829145
Co 8.970477201976852 7.615747213764814 4.513309363088328
Co 10.308473840706442 5.824106369290691 4.990055361116783
Co 12.534023202057025 6.552441727998727 5.727385966292233
Co 10.048155695061528 9.716976313714838 5.0871346321453625
Co 12.269232017484745 9.286834606246607 5.837828655007879
Co 7.660865957310711 5.666107615837138 5.058168315471665
Co 7.524027661790468 9.928330362428085 5.265018002632016
Co 8.956161797518572 11.895021417929987 5.149850302900252
Co 10.655848879110472 7.725673027752637 6.362581856545853
Co 6.388885166761961 6.730665855646181 6.847664451231137
Co 11.091887538034072 11.356711838879388 6.448903752621919
Co 11.155302902648362 5.558987666246813 7.352565417983118
Co 4.209413551784273 6.818569257539991 7.480378039654752
Co 8.371516786813283 8.237312782223107 6.66897297847227
Co 5.142489341949923 8.725111599454207 6.327679494020397
Co 7.02788598395104 11.840728212357856 6.819032605413915
Co 8.886569040514159 5.946789780468147 6.899539642654266
Co 12.367116102053043 7.5081883295131515 7.995392923722348
Co 9.021489530007297 10.619822150076642 7.047812605415222
Co 11.22258749030345 9.532372274532708 7.904866848608318
Co 7.171710133130988 4.878576078857517 8.160152449361108
Co 9.210165079083167 12.87913083962691 7.360346744690338
Co 6.739489315016831 9.677300864407835 7.541932322655186
Co 5.559826939679566 11.092673274314064 8.947530111671895
Co 6.3104318675303634 7.622354346653303 10.785201741302938
Co 10.151194311474946 7.2540369792630885 8.781230034102466
Co 10.253647147502086 11.325699845636837 9.023506207748492
Co 5.526325160217091 6.053761354878982 9.250261076761838
Co 7.640921444797916 7.255672628046651 8.776700552858138
Co 9.025020070004441 9.30218334150956 8.867406075259566
Co 7.896240934035822 11.677643273986838 9.017644004709108
Co 5.102783507737915 8.453994880739687 8.809045691838545
Co 9.38031396980722 5.074016745726537 9.022571232096547
Co 7.020447977866042 9.616167406387861 9.88894939478964
Co 7.712193136234618 5.685454621764098 10.586372137206425
Co 4.037506923353936 7.34603586562803 10.759797452368861
Co 10.919326711843109 9.013570588898993 10.22252497030567
Co 5.570247994223967 5.690192878585171 11.733773214752182
Co 8.768284916307255 8.021507977771096 10.842454705052125
Co 6.595006706345645 11.499377725561223 11.079350834591947
Co 11.78242597421143 5.728454231494156 9.562472691997076
Co 8.97004153019471 10.46026814870865 10.957519433354705
Co 4.976972640964954 9.56584952908021 11.038967332182288
Co 9.998921866188464 6.161956996540063 11.008475120141243
Co 5.240697928163118 7.870712340389992 12.786131815874768
Co 7.6113052011605555 7.062635512316378 12.637398541396516
Co 9.247552737782971 8.931759878277031 12.841013008782557
Co 7.085966619248806 9.421646151427108 12.293338487437826
