54
Energy = -307.57062393 eV
Co 12.621348079233124 14.837141362894645 8.220868502898002
Co 14.185775288054401 10.757722259172583 11.445048689435975
Co 9.292142609059383 13.64392246311665 7.31986308978802
Co 12.83859539173371 13.931540337916664 12.081568972793434
Co 9.762135013645116 9.14520116919729 11.0014815516557
Co 14.524688032828912 13.703138421213941 13.80631543025169
Co 10.674323536829336 9.130163382498305 8.725740415994258
Co 8.990735693779339 11.54029272099323 11.621343793488089
Co 12.236083529138947 16.273884078039618 12.130616230648995
Co 8.245269403658309 10.359640092276278 9.68737757764379
Co 7.740657969619469 9.857283933480945 12.276116193647665
Co 10.0441460329182 13.271347304367936 14.97717435724659
Co 16.451269184694777 12.166506257644794 16.393408218333843
Co 13.075952230637677 12.452329674432887 7.385890454937044
Co 14.431007670509649 15.68531397046169 12.70131230268345
Co 9.687115953107009 14.847262884915246 9.181912947443854
Co 15.216879006057361 11.55597323726737 14.69810615121551
Co 8.725723662618117 11.557788386504084 14.104910909479253
Co 12.209313868491597 9.290306639771082 10.771322654747467
Co 13.220514189680282 11.904270630986039 13.37700321937635
Co 13.21242697816413 10.54346722549777 15.438456593634802
Co 10.003936883184974 11.831305690203891 16.756109533606313
Co 14.725134001434292 9.601478484739951 9.40135988315729
Co 11.133869196196489 7.889162618618882 12.475606257083827
Co 11.124334893890454 12.98965362095601 8.515500911019217
Co 10.394715642078824 10.797971245407592 18.62041234330021
Co 13.919063988298142 15.241150120164136 10.502025732407475
Co 10.901893821501355 12.227949974205975 13.059214841489835
Co 11.042540365311895 7.391531281108742 10.144228499550538
Co 9.767692425341352 9.61675888010269 13.327146079650738
Co 8.847448313291725 12.506849201873631 9.228669317506979
Co 12.801750880240382 10.937630588728844 9.081691789215013
Co 16.397116086131614 9.425833644041017 12.95390267957664
Co 11.641288215891668 15.340258223265403 10.167833037751477
Co 12.925324992600268 8.564543874987079 8.691250079765606
Co 8.128687426193038 14.019380885860983 10.744726058157045
Co 15.849704094720728 14.024955907036912 15.503942659281934
Co 11.403480655424652 9.787953793024892 16.929827178203706
Co 13.100945419454622 13.179305528640983 9.76581435422795
Co 9.76633714526035 15.681242562513157 11.527460069489324
Co 14.349988370703116 9.612376349236305 13.571739840076548
Co 11.523682993897387 13.867008767132226 6.413282403838773
Co 11.384862365452781 8.603416515518488 14.841421644163379
Co 12.776403084254287 15.238692993064918 14.270828046069553
Co 12.202184839323513 9.820835793435718 13.026225810418088
Co 10.438809761183652 13.429302002914197 10.889655345906174
Co 10.506763624994328 11.096493614728612 9.73335931291371
Co 12.092075508876473 11.728686453307546 11.249283578868726
Co 14.98349646168668 8.581371396043263 11.443367547894836
Co 10.918301510399312 10.925457410031452 14.945506037881604
Co 13.652197149877747 10.11971688327682 7.1424611498070085
Co 13.100895168450124 8.502701557188812 16.280945433290025
Co 10.893648647122905 14.609380980460635 13.179417418662577
Co 8.859076315289911 13.521637160594361 12.890948939948798
