51
Energy = -301.68850775 eV
Co 7.916322919852445 9.586704725899272 6.815297225576019
Co 9.232837408199286 11.188394770763788 5.862230415990449
Co 10.352709811714877 9.210075471891967 6.750354032253199
Co 7.322388149892643 11.873560635582226 7.209240127414625
Co 7.157016292125006 10.165127756689811 8.965210489762214
Co 9.0558646209027 8.729134630774071 8.710636912705557
Co 9.77556277571252 13.134927290253033 7.120503547313692
Co 9.276839480224675 11.094335250853879 8.233957783009672
Co 6.226013503590306 12.19940603911766 9.375019137325685
Co 11.36877896798573 11.345736938670811 6.888709200221126
Co 8.269579454498988 13.176372315436302 8.93461440847038
Co 11.358298372665859 7.752297184519376 8.493977619266948
Co 9.882744763919815 7.467723928435416 10.38420856880785
Co 12.572187332561217 6.761998137336609 10.244504555549971
Co 9.93383748132804 9.950187697796737 10.645198528447674
Co 12.71684204346311 9.276255852374993 7.127909536058898
Co 7.028111431618506 13.65582372204015 10.98879343777647
Co 7.835116040681655 9.07409461684716 10.88623470056009
Co 10.609142391176437 12.287598901334063 9.93818994891544
Co 9.971873791399496 14.643138872349082 8.95588575504732
Co 11.28663732792912 10.011305306723012 8.820723095453314
Co 11.842616633382722 13.252111977115911 8.275325277835364
Co 6.255164119840543 11.293585125726958 11.602470402402263
Co 13.204657950352178 11.27181288150229 8.480977436434198
Co 8.272592895916967 11.57688619335786 10.62206946047393
Co 13.318509662609426 8.9408173333867 9.465021343951873
Co 9.39892584860726 13.766495468812701 11.199099423063707
Co 12.347395523386762 10.886744518148513 10.792639372930779
Co 7.922471459175552 12.591359748909223 12.821959206291861
Co 11.611494217936164 14.522930351229585 10.497863820949759
Co 13.308404166247978 12.921644587583195 10.165498291815716
Co 8.053575554926196 10.258005876827315 12.914473564398621
Co 11.770393715680205 8.5794961013203 11.339127560100412
Co 9.55791464659899 8.45130636350288 12.499693366653277
Co 10.059165517109234 11.520056635449073 12.46334435292553
Co 14.690288283581152 10.921974724751266 10.235784923608334
Co 11.017703941892695 6.482715238300407 12.184332797056433
Co 10.081384711692515 13.736578285816442 13.407682830831327
Co 14.742484788309877 7.595946533183165 10.687154160615648
Co 11.912168200827375 12.932793250342423 12.120972494258073
Co 13.93821804846155 11.783797978498368 12.354055913939678
Co 9.107417117331439 11.929028949728195 14.664793514737518
Co 10.059949108256392 9.89098513517546 14.264370116847019
Co 12.165307826127563 10.25707609540102 13.131081974990288
Co 13.352836917240548 7.222711222175705 12.497029693529415
Co 11.50616030643256 12.099479604540631 14.364723708194035
Co 11.570672442474173 8.071844007996395 13.801008935614126
Co 14.011721107958447 9.423154584563148 11.88645441669309
Co 13.763132242110728 11.12579153831784 14.574788672304358
Co 12.014114711148009 9.882856924143356 15.489210818362844
Co 13.759227346227947 8.805396386887429 14.205952141845835
