51
Energy = -296.11578301 eV
Co 13.497068642875446 8.278468279272749 9.218070680825466
Co 15.265397403561241 7.861780174534987 10.623243134303477
Co 12.466723436934892 12.499587140357008 8.084622861338781
Co 12.02186727711173 9.750067468429101 7.765336493761641
Co 15.411123411887564 9.926260491732837 9.576028027785066
Co 9.986352487366272 9.158242193373288 6.2705679119494375
Co 14.884946153033326 12.250742380662006 8.734188909598176
Co 10.685745369051839 11.364844303445048 6.935171700075502
Co 11.17390593311197 7.68344812700334 7.990226705965519
Co 13.105466404029128 7.370658216273202 11.478162157914301
Co 13.306303211848357 10.731617564219592 9.331809177769399
Co 10.221144208325718 13.49654707363414 7.870253195733348
Co 13.891226959080134 9.55537546652653 11.361957448711381
Co 8.785176928998185 7.570137490211339 7.552100168593128
Co 10.870470771505353 11.27583595140885 9.467854238782458
Co 14.75063201198274 11.721995844890444 11.083057644359227
Co 7.812005408312789 9.733338792128755 7.22387124451129
Co 9.732991873364528 9.481362928405627 8.506306748745924
Co 11.661106836975105 6.56752679319237 9.936989907452492
Co 13.533726672802146 13.473456426954309 10.156282069152583
Co 8.737731766942343 11.645060822062712 8.070412335828697
Co 9.556199290473646 7.491655210782589 9.820432299106399
Co 11.533798236265847 9.003140436610517 10.196299363344886
Co 11.285288356460558 13.510563497938591 9.89463657731152
Co 12.354080359871965 11.675372626573518 11.301558300375206
Co 7.580311131684169 8.876862000768005 9.383970253073727
Co 10.684363775077712 7.649946017337585 11.933326421091218
Co 8.757280719254794 10.705449637120749 10.3459029207996
Co 12.265442149312596 8.984993504695625 12.995930977030842
Co 10.571269738186121 10.186869007137911 11.982588903429054
Co 13.594640355272164 13.327994694789805 12.485431106750323
Co 11.354163151128613 14.296594447897416 12.034563573913806
Co 13.609532425918191 11.0156364386297 13.227239047352914
Co 8.584857880807185 8.582816717737591 11.618291041690682
Co 6.79681966415659 11.213992683488813 9.245058679650828
Co 8.792908127155261 13.216230526906923 9.794515405210836
Co 9.90555604271641 15.231298020066916 10.211848768048537
Co 9.90726290955516 12.409287527527326 11.760724775625746
Co 9.708441948213274 9.036235458915945 13.80476800348828
Co 6.590300567034724 9.967726011818257 11.25244363091582
Co 8.316290139119365 10.679173732768206 12.716568588220676
Co 11.773485683973325 10.343978358529677 14.716862582835462
Co 11.716876126065593 12.337820282020445 13.459270504085822
Co 7.288538425721087 12.343279753339496 11.398983976460237
Co 9.797493529256213 11.41001293746465 14.320287537458661
Co 9.87040942316209 13.797550753097003 13.85415480767557
Co 8.70858920444987 14.358605048763334 11.928368242553212
Co 7.161669674601409 8.891613966284815 13.509201499713326
Co 7.829469770544136 12.725847541061583 13.677564445698305
Co 7.718418183719376 10.661473794703497 14.977890410105127
Co 6.081760975070345 11.01523569869889 13.350887322143405
