5
Energy = -21.88641374 eV
Co 9.795719098597857 7.242170088494549 8.329036832503741
Co 10.163233758167157 9.529333644089474 8.368009669853853
Co 8.168763744607887 9.052292201774177 7.644180623349988
Co 11.796518220468517 8.100422191294996 8.142452330981191
Co 8.370500107600785 8.2595167267214 9.601592689883352
