51
Energy = -301.69009726 eV
Co 8.670538858060224 12.645171333456922 14.065714068201132
Co 10.748537057337343 11.907852234585176 13.411225005529062
Co 9.595951273952178 13.567564428582688 12.170019999290158
Co 8.488197858606716 10.584999248122598 13.185820521890188
Co 7.617027513347499 12.267129071195313 11.886209661789804
Co 13.216089413494618 12.112867834018363 13.625862726436702
Co 12.014064567323715 13.62937219776574 12.244772082889178
Co 10.128098708377463 10.194938117939424 14.840207433085604
Co 10.65663616334825 15.126836772200535 10.703998024460878
Co 8.841338336110951 13.505709093340375 9.984381074590033
Co 9.675066189698528 11.392107658782622 11.032127981831888
Co 8.356044598259643 8.754006764611715 14.588907505371003
Co 6.672763463174283 9.163453924093767 12.886926849926763
Co 7.541995268907836 11.719063790530624 9.594682372397115
Co 12.942130854603814 14.498842751466537 10.286695684693619
Co 12.190978526618782 11.318085725564988 11.636771638406117
Co 14.063496638756238 12.622430565478933 11.459437335243123
Co 11.162098068736892 12.968211468710932 10.093595475088074
Co 12.28387564633916 9.939155108184755 13.789860144404285
Co 8.731880761706684 8.044242082920954 12.416124751336174
Co 10.509193770361561 9.615053685506332 12.423823545151922
Co 11.830108262758463 16.0739683214171 8.953890167042712
Co 7.7858800285384016 9.881689175338648 10.943364137623663
Co 10.658264209154362 8.025525541070456 14.073204600746811
Co 10.270015101458903 14.382011287443534 8.406164536693964
Co 12.54023569375647 14.128105832578699 8.00074963711996
Co 6.948250450696651 7.72978270907656 10.993449227495569
Co 8.00499758563339 8.43808091138195 9.033235211624774
Co 12.924131112157673 7.78489458639409 13.120553288961542
Co 14.1647023634975 10.188688031696719 12.390467333319442
Co 9.995150467718094 8.853006983907466 10.290943289862845
Co 7.180800020738755 10.382929927972112 7.7567929839797
Co 10.96147165460384 7.198179799719646 11.89782300744493
Co 12.450500136992272 8.929088869928158 11.205480697615613
Co 9.349344978198628 10.444317662904252 8.663055570110876
Co 8.854081587580346 12.443802556906089 7.640099272610675
Co 11.6081006519666 10.471219526118766 9.527169778826
Co 14.015710966369962 10.374237521284096 10.05817361304498
Co 11.206955664526792 12.201295835206025 7.873501555702256
Co 9.057138786273159 6.727678692854305 10.399136205292052
Co 13.265227693019407 12.32907162502113 9.243582055489728
Co 9.469831135966581 6.958797540621924 8.051383447638491
Co 8.84977066850579 8.971142416725144 6.868774813634748
Co 14.701199153704259 8.316046669044352 11.012779034474548
Co 13.123462358994448 6.6696899641701215 10.937970397328916
Co 8.216936101426924 11.06013878216818 5.87037957860666
Co 11.306112204151415 7.01995308212723 9.522648208417795
Co 10.982761383341058 8.785870615768456 7.941761323952645
Co 10.427193165205487 10.608411110693636 6.5206813274631825
Co 13.122956612716168 8.467965508256752 9.027116812273544
Co 12.79692623977196 10.426644865195458 7.61201377683878
