5
Energy = -22.40940119 eV
Co 8.46431898599932 8.86636949121942 7.9431005244020465
Co 6.557727727464731 7.172064507335219 8.681861481565535
Co 8.638002761133547 6.712005614976837 8.232130976955675
Co 6.485495768000342 8.633981057082678 7.062373890427613
Co 7.6629699581995 6.966303795602509 6.29797868606673
