53
Energy = -314.34570256 eV
Co 9.597756703876964 10.46104188902678 14.770826751569201
Co 10.477468020520952 6.311736482635168 12.229959380491499
Co 8.087867329867962 7.034676537756633 12.803711573569196
Co 9.65737865823058 8.634636994288142 13.10433909035834
Co 7.589361177496567 9.780276329693608 13.893640689151903
Co 11.452151651246462 10.03724328943454 13.44835319861805
Co 11.648001279389787 8.30627381111684 11.823987367917711
Co 10.587662441494993 12.315524925796858 13.773954598646982
Co 13.361890661362438 9.986570853578787 11.972657283616178
Co 8.315169055699434 5.358091822783311 11.227141701361676
Co 8.24143564330039 12.84996647058238 13.417789656431815
Co 13.01401759252225 11.758236763846707 13.614526884625299
Co 10.160354301163698 5.414005120510061 9.929205924001804
Co 9.290861692824823 7.49733987585053 10.744648111902983
Co 11.659392244555281 7.106956798272559 9.828736849814398
Co 9.142802266424415 10.970223360391643 12.515354383640286
Co 7.626414692821444 9.093250297705506 11.755766560101376
Co 6.9241236213674835 7.1735453392558135 10.655235949125696
Co 6.789369003906072 11.389721912532613 12.25735268349068
Co 13.78535713535798 12.341013073944604 11.511535536649259
Co 13.695438070218175 8.28624516975335 10.147507212051687
Co 14.635935945291905 10.517184048489094 10.147338326124519
Co 12.117426139639436 13.680927757696987 12.672916743114273
Co 11.579868595640837 11.534494836133236 11.59831738063016
Co 9.926558016214795 9.733202314872813 10.741792874176955
Co 8.494082511312671 6.665371766119639 8.744857741453496
Co 12.053774200466997 9.774879660629148 9.878012683400678
Co 9.840821791837946 13.249279013397453 11.694448238657031
Co 7.740783235713003 8.816713156510476 9.244351376316175
Co 12.929628472542952 11.898644870812491 9.399085061466304
Co 11.769175281013014 13.673598542305502 10.36550771904762
Co 5.920136417527297 9.752007048846341 10.401165108451481
Co 10.179394779538619 8.5930783156651 8.624885191773473
Co 13.742457553572239 9.999711542958314 8.10847331984918
Co 12.384838702494779 8.23222414957025 7.902895299951097
Co 7.946134885722607 11.058652471867346 10.295362557043571
Co 10.582633792745987 6.4332770034119715 7.769299091300656
Co 10.73543755553317 8.1901576567681 6.278294501175054
Co 10.205938330262272 11.906558397700536 9.635962503616359
Co 7.6589809317919775 13.319551459376477 11.064200252461003
Co 11.343656324277639 10.778275377903428 7.7901462063033
Co 8.488977392630094 8.409736425582855 7.022769673490544
Co 5.869680525820242 12.142224684839007 10.060098668917313
Co 13.26532156697029 11.93826193480142 6.9601650422452765
Co 6.575758684215547 10.671392801870873 8.336884405407085
Co 11.609543811362979 13.27090639522508 8.060700636555072
Co 9.58702077762031 14.131570199442926 9.483598159846895
Co 12.378534967853879 9.834971836820372 5.967287476683737
Co 8.855861956470651 10.534425650249448 8.02063449398137
Co 7.889181020098244 12.732171958501773 8.735154709745276
Co 9.921333266156454 10.307147372723582 5.972183545584167
Co 11.39250136644656 12.061308024797333 5.672635076898602
Co 9.665976813021963 12.556776389092189 7.235710847571325
