5
Energy = -22.26440515 eV
Co 10.716990862221454 8.992701465507457 10.618007814023091
Co 8.289564592782611 9.687949830094933 8.775815558258563
Co 10.30665234799149 9.083473313452407 8.30987343897272
Co 8.67527265600898 9.620589669731341 10.936326906372964
Co 10.169825347926414 10.85969157032238 9.597873210327839
