50
Energy = -295.35362305 eV
Co 6.431771461234706 9.451579649475816 9.388995897466852
Co 7.276305036364996 11.666533261373736 9.490525252070116
Co 9.132011544778688 12.1554938044315 8.179590754099419
Co 8.352070687608304 13.832047768933334 9.579079624991977
Co 5.912773121945929 8.229771845310976 11.230158620229611
Co 7.692398094637074 7.594096801005077 8.963583082016935
Co 9.611559229908162 15.82607453749875 9.621388823924136
Co 8.649815980507904 9.849483382437434 8.594678961338868
Co 8.525429644363532 8.788750551055227 10.80574739565117
Co 9.319651165135225 14.557677910157238 11.587107734221739
Co 10.344130771007961 14.187244585753477 8.096109997551757
Co 7.56288496953818 6.699336255670325 11.174439211557042
Co 6.882318235215657 10.4177877256769 11.477749427091622
Co 9.778919141509448 7.977642723492361 7.7975710763191755
Co 7.866508521390884 12.615006466345603 11.598452749409951
Co 10.943075561351742 12.394958951559254 6.69503005910464
Co 9.289884501362286 11.042489109149264 10.601859219740149
Co 10.569690526822463 13.068434422045549 10.11502554081593
Co 10.137517518367522 10.142435754518006 6.790435205475206
Co 7.605941456391663 8.487033586234604 12.911408351114302
Co 10.825023547767858 16.353075186855122 11.479221965767373
Co 12.39897373298721 12.952156955651942 8.524204582437685
Co 9.63624550338399 6.787409738281484 9.943929504672091
Co 11.828601739756873 15.05159153402873 9.787287085886414
Co 10.824102511873983 8.887716020985058 9.802907018200656
Co 12.848233077153449 11.04380553863361 7.122780304876544
Co 11.575312348703456 6.743219025112416 8.694199255835613
Co 8.641687365691753 10.60443040180038 12.955428272963605
Co 11.070779678021264 11.019354640241932 8.735172189492507
Co 11.617270780435032 14.265606910935324 11.9872080046761
Co 13.367895956349546 10.788256719804044 9.424935981678717
Co 11.961630398279041 8.995016350923652 7.693813967832309
Co 9.61392468504004 7.239463055158985 12.335373508464462
Co 13.10514077250933 13.007518743921846 10.717379151135308
Co 10.079918005781687 12.462224107705929 12.46714258823959
Co 9.651247536078186 8.726117132279603 14.203419422089144
Co 10.508135613124992 9.430553804200384 12.188610279541455
Co 11.716328115032496 11.144082203865525 11.14919346349831
Co 11.65002965087325 7.076610274086467 11.113738837424716
Co 14.406290064986402 9.367082809413745 7.915575519768207
Co 13.27745680834129 8.081836115741377 9.371856332125185
Co 10.635906401165121 10.94943385527932 14.180382781719649
Co 11.818834412531958 7.915700729452097 13.375520966626429
Co 12.393717715949292 12.371896695486782 13.04588454561561
Co 14.079116847305952 11.139498572567785 11.7751318967405
Co 12.705541102091365 10.084581486813283 13.5187785921432
Co 14.935013848006054 9.389761611439907 10.430127084590554
Co 12.846701215046524 9.019264257240936 11.410804745042961
Co 11.63363720301047 9.21006146197767 15.335850940205466
Co 14.655898464229184 9.102047238938251 12.808456497469436
