53
Energy = -316.03654922 eV
Co 7.9402078612150095 8.438895892015932 4.4960754232372935
Co 8.755566536978748 6.581169839378266 5.828427926674113
Co 10.33083324431287 8.358820934617029 5.137949277496172
Co 6.817470790087145 10.003293274836839 5.9204660438747405
Co 9.091247841471281 10.53022153224753 5.210471555255818
Co 7.441158388714812 5.693401558086791 7.6790529909611625
Co 9.632093319001878 4.711588189005041 7.194067651332551
Co 8.665126605029844 8.762092144117785 6.7223934734186175
Co 4.227285282721079 7.5193993775469785 6.4150627575982835
Co 11.164432426367984 6.521919073299957 6.495989917475166
Co 4.636317491906387 9.65705171814389 5.7498392511858105
Co 12.62087809987479 8.215122060057483 5.74144567279375
Co 11.369797207844993 10.424774246671086 5.753026851600051
Co 5.503265819150004 11.397157462596176 7.414690034824181
Co 7.835202343302567 12.06654704240568 6.702398086535203
Co 10.016703739662642 12.580587604927068 5.893687676686184
Co 6.492829982341399 7.5780342211524925 6.252700964526974
Co 9.464643703525544 6.88364030317154 8.061765345352445
Co 11.134653567018349 8.798824435744336 7.389396826348047
Co 7.423994827361885 10.310333759642509 8.214225224637406
Co 9.871518539272541 10.92995420038395 7.473446582134595
Co 7.25691703820255 7.861465660001548 8.558594328310848
Co 11.292440084330922 5.587099151783878 8.790948171665466
Co 5.276673065865487 9.074336317556007 7.888597449585116
Co 12.81792196561192 7.344574526952817 8.096600420383107
Co 11.337068269815235 10.247021746275877 9.344586051475924
Co 7.1307448094936134 12.44539606464994 9.08763220798086
Co 9.312767710687517 9.10207653949941 8.92070301092721
Co 13.100349287934923 8.847896066087866 10.16519587637732
Co 9.30003456174369 13.04194844052398 8.268197121574268
Co 5.53056663111634 8.161950243734532 10.165645362724174
Co 11.119032869165263 7.774963160990585 9.655562818883064
Co 9.164455628296812 11.311459197843252 9.809035676262088
Co 5.280826624460436 6.640327168696196 8.296857079767301
Co 12.926089867978385 6.493057744572186 10.402154530021159
Co 8.634102522296908 13.368788599502102 10.666486416237166
Co 8.994997773002513 5.091028536504667 9.52989149423432
Co 5.638865480129451 10.608302397886408 9.749884439045596
Co 11.934699777607852 10.382130881344949 11.652117128356274
Co 8.801384102832134 7.277116716641031 10.416166203482296
Co 7.531624525947649 9.391177982369925 10.478073491536987
Co 9.91503829126947 9.367673375741605 11.177854620715658
Co 6.802062606952247 6.049164266074358 10.08028177212555
Co 10.629995059077823 5.973304859614998 11.132349553585374
Co 9.622895756510038 11.508332415296433 12.08515022794016
Co 11.728158976294054 8.026001494656583 11.929992799983678
Co 7.299842815996556 11.549378871039218 11.359503534897115
Co 8.357045282544455 5.493513326715401 11.877039899708281
Co 5.799725671411221 9.704783775275583 12.040919304669961
Co 7.072548103456293 7.607184320126866 11.986301058479642
Co 9.430706630922906 7.5630423793008905 12.662127020603023
Co 10.525036249688124 9.63211121941437 13.408876008078215
Co 8.163169614261111 9.673578955341931 12.733110658498369
