55
Energy = -316.08775155 eV
Co 11.817602823334541 12.25718818974384 9.379510370770262
Co 14.237775701536926 11.894433372207592 9.421540873549892
Co 13.245445441189283 14.1277548405465 9.41446575770123
Co 16.34420912121074 15.09202470136723 9.811616261090965
Co 15.09293421323683 13.53295238722557 10.81921426921359
Co 12.352768252641019 10.542644363346644 10.853324999673136
Co 10.54869366628994 12.145442997435024 11.365091032195595
Co 12.866063497668708 12.778595588355032 11.3572832846049
Co 14.57200064850064 10.947982793802263 11.557427330040747
Co 13.577974880857711 19.052327238488278 10.819715280081626
Co 16.54648331953716 11.693640413985518 10.570441508664002
Co 11.27371948699107 14.788225371642257 10.549310700320845
Co 17.383263851000162 13.758865014935006 11.310736682086027
Co 10.168461774322097 9.889829882812496 11.605344747845862
Co 12.250306244159928 17.13704376443513 10.810009601115578
Co 11.653208424640951 12.823924936780411 13.298439344645978
Co 11.31786007249019 15.040178061004951 12.808687015811557
Co 15.711380732322985 15.544264694852819 11.915974426491486
Co 13.371677435447436 15.290235639455876 11.473151958887723
Co 14.310169091794888 17.365279177846464 12.200622023152901
Co 14.715182240686524 19.620310360401167 12.603074204741361
Co 14.791400747612368 9.669239506862452 13.601271561694587
Co 15.990458316979847 12.465738111879624 12.863413851250378
Co 16.68886322460272 10.28683860338677 12.524784850001552
Co 17.580422013408437 13.866085558221618 13.636658944100807
Co 14.13697862516982 13.776665474855335 13.17930302728356
Co 9.803004338935933 11.206703638937256 13.522485538485354
Co 9.440214677709706 13.513419039956737 13.073272513869801
Co 13.527501240538362 11.563066315056208 13.640370589020046
Co 13.55689947490229 18.520815019715585 14.151468769363332
Co 11.90206955323087 17.281424326982975 13.032015723761416
Co 11.888176252900903 9.958106352988818 13.149918556425726
Co 12.949572295958204 8.138450866140024 13.928180741261906
Co 17.09324840037908 11.41346084358285 14.602872817164895
Co 11.581548960569572 11.365902391925749 15.138914332291675
Co 13.54117151725131 15.822663520019642 13.89903160211991
Co 11.535561178526132 18.3381848196631 15.053442592756541
Co 15.845498058608122 15.286824827473382 14.138952744138649
Co 18.156278577541215 13.119211511914363 15.69164378273631
Co 15.038413418752935 17.224251765812163 15.130044538275468
Co 14.952248512206982 11.48026577555396 15.37497212467339
Co 10.562327911988564 13.721308800154942 15.130542631787097
Co 15.956643694072575 13.500216215195527 15.48190661599537
Co 9.487481212553682 11.836472442895781 15.763792709801631
Co 12.974576680318034 13.49233996969034 15.271765666018997
Co 13.289971732106487 9.763630961147701 15.533527980548543
Co 11.108862852597536 9.07213095282856 15.249313144004956
Co 11.23429912158209 10.335116297815336 17.152426013369443
Co 12.29347288531055 16.335867651578685 15.718015353702093
Co 14.457962705558595 15.100242436527001 16.150097579997965
Co 11.284381899441989 14.816925683110174 16.95006738990544
Co 12.965892662777819 11.785828147139394 16.981947135168998
Co 14.60419144429149 10.335332414188798 17.2611130796962
Co 13.912895476648089 17.037680164475624 17.10269875521169
Co 13.199720486789994 13.935836873334008 17.664176143111597
