5
Energy = -17.95722828 eV
Co 11.644805867093368 8.146036518473164 11.287475774927952
Co 12.116595496246317 8.144587792102403 8.865812891647987
Co 10.431820910359498 8.90275972277434 9.78032086952937
Co 9.921146237643946 13.355978108419981 12.223082580922048
Co 9.823765631220677 15.259502272991083 11.771137751654582
