54
Energy = -252.05240456 eV
Co 11.096087174008744 11.022020564037183 14.322888452315498
Co 18.25338221224364 15.005021400919086 9.69633502526887
Co 17.710269778274785 14.519236192056093 14.204047635840194
Co 16.818320816810964 16.355478280209873 10.927430101197997
Co 15.802114665454573 14.786506395612728 12.627165049126868
Co 17.342023781023165 16.808588888668847 8.697642657723103
Co 9.323333611803795 7.038728214568731 10.535899606402673
Co 12.007254815899405 18.527665323653157 13.961749182583267
Co 17.56181138638588 18.405601963909014 14.801749702117775
Co 15.48786109397201 10.44356098391746 13.365082237995162
Co 10.323877028482759 12.314441878789665 16.091788793499717
Co 18.0684841332183 14.751246584769776 11.958018602389943
Co 17.951430157021928 14.13057563184724 16.550280702705646
Co 13.353078963841334 17.724113643690234 10.586150446275031
Co 15.329927531500873 17.291537650072275 9.578076395970506
Co 9.962315872265762 9.086221321498332 14.102668041495964
Co 14.080702481682813 13.410335262488685 13.303951955299173
Co 10.886908513284823 16.50886560532026 14.168354280834384
Co 10.635500682678702 12.964745562173174 13.130778696545832
Co 18.92866804167975 13.041138511122924 10.569539560801699
Co 12.627710471196822 16.75101453543753 12.555244925623278
Co 13.267039177071078 11.143615425530419 13.473851081253613
Co 16.559117966031973 10.896338877661398 15.363497257677865
Co 17.2655279288279 12.097399563255768 17.107434529854814
Co 9.5854039669702 14.198768338346051 17.081100984033178
Co 10.018792162205434 10.080153058044791 16.15867843989212
Co 10.92420256358518 22.319684297680475 21.555254521896753
Co 13.768032471852852 19.8165754740432 14.598254697525086
Co 18.05055861775041 15.919097683497847 17.743549521785226
Co 13.951870516982842 9.32801857435396 12.126404569546125
Co 18.69977947074453 12.714020278072578 12.82143955642949
Co 9.868620163257718 10.819758362957705 12.390360353005008
Co 15.531620484770567 18.5040077593959 13.921579215797736
Co 11.767276042947605 9.534933057431049 12.594389485887113
Co 21.51812070521696 7.878356471942151 22.314078327204843
Co 14.948617751963477 16.919630430047476 12.16799832643337
Co 10.475243379137922 14.297024072606606 14.914350204705134
Co 14.59674934073776 12.033328443107383 15.09654158716951
Co 8.691436756493333 17.92416170392073 16.958960947194917
Co 19.145997298337402 10.954172713254938 11.476823316823443
Co 17.748310484647575 16.360720094090237 15.659985217057262
Co 12.171669117973801 14.666174817263546 13.283330833849346
Co 17.789046884814102 10.669969029710886 13.277226918723555
Co 13.724147239944411 18.900458434872885 12.492444924888204
Co 22.673318169042687 7.295633556872536 20.97221397618165
Co 9.568741751153741 16.143538506892824 16.063389850571447
Co 18.262026808143634 12.354280775951834 15.03769129654738
Co 10.08458724728041 23.366128995848193 23.002102659994765
Co 12.357341620095527 12.887990099817554 14.905612644923929
Co 16.998815559460407 16.691529325439813 13.374526576528922
Co 16.34430131229174 12.625078484361191 13.584870183389851
Co 10.30732092864139 18.37680834852434 15.596508616521659
Co 9.825430180619536 8.550165159474528 11.84960146598051
Co 11.621897405697167 20.124293225523274 15.527683406395083
