54
Energy = -290.98283821 eV
Co 6.928768864682729 13.443467795384917 10.687198263962896
Co 12.128012004776709 8.79298397137585 13.54052608581228
Co 16.740460975113063 9.83099374949717 14.635844539706483
Co 10.164166489513649 8.385733575354092 11.676639898293557
Co 10.449414583683218 12.050353274476345 15.45564964671856
Co 8.536049330964785 9.761267352258722 12.796278261456747
Co 15.817619804255578 15.75884276361995 15.04394104060116
Co 12.432038794084498 11.023685307264392 9.566000584355562
Co 10.173786503154894 10.332717230916428 10.351998195590049
Co 15.323785404890872 16.332839768844227 13.056741284781062
Co 9.747934117708315 16.718892703365146 11.62004926475046
Co 8.574651426549954 9.956996702244272 8.547827984606442
Co 8.178311549342629 13.360219124924374 12.677765969511137
Co 14.981441566320886 15.294610845412127 9.325209028053575
Co 10.786255366293094 10.432508839157808 8.022926840848905
Co 9.999106709761968 13.742579669385577 11.159087989102472
Co 14.13761041553538 11.169239005609116 11.041505478160746
Co 7.2812226465231875 11.352569149711414 11.887889996994677
Co 8.697400978410949 13.943778818014534 9.176651369846565
Co 8.374462596733055 11.797129577932052 9.945353782197
Co 12.233536266875994 12.313028069645627 7.740865651286026
Co 15.96424901268327 14.021009384232798 13.738386211668706
Co 9.114465335264967 12.083485189735912 7.642428608925215
Co 8.861896061990574 12.805566816117686 16.826631136966153
Co 8.98606860135947 13.857985605797289 14.891434662925677
Co 12.134488716027885 9.784884126507235 11.467180524191246
Co 11.721142891356646 12.060994940223617 11.542843889618963
Co 14.470360048650262 18.989225415899433 10.982714581304686
Co 15.519814606686696 13.184867900518972 9.685069225489798
Co 9.22937842022656 10.215848242588415 6.377228282948988
Co 14.46574530538487 11.513235395161733 8.70213418567169
Co 10.628230725637597 12.538884116893422 9.318738115951883
Co 8.030264797516544 9.260496960234377 10.663395925678403
Co 16.35720093273383 11.100090257878763 10.138690248330239
Co 15.835193307683927 12.475894002829916 11.932965925912722
Co 15.517806006756402 14.67580411318639 11.502526718094005
Co 17.126424717616484 12.018494416598367 13.68138907850909
Co 16.398981651033342 7.82030099029568 15.35786616102343
Co 10.442480039111407 12.85630059350457 13.319892847147887
Co 15.282830252178215 6.971642036832806 11.370704746028716
Co 15.889642884261159 7.966521512679803 13.250379305862536
Co 14.016371688259264 8.83721568171272 12.163798024124478
Co 9.72382580515024 15.088761766820834 13.119724992585125
Co 15.010879923269204 16.918808298021535 10.859865014755359
Co 8.281469312982905 15.224425896016482 11.141185728078568
Co 15.798320533429232 9.04328364246772 10.73255041041107
Co 9.932792933303201 8.178301741256695 13.879544016807277
Co 8.129373303240747 7.438931283934149 12.295126976617643
Co 7.6452970529396 8.306551055601519 14.341854194864604
Co 6.771922724627732 7.003364896818519 15.722787069572103
Co 14.742597788753473 18.434720959500407 12.98919802734561
Co 10.673898793790707 10.510900876596407 13.167517691454576
Co 8.622709020841524 11.571294695555832 14.200678585387452
Co 15.782522859884658 10.25788955798231 12.676813688436054
