55
Energy = -328.89057888 eV
Co 13.211926361957765 13.53983816171986 13.092319034624317
Co 9.298569423374945 9.808877340457041 12.203464880833804
Co 13.115089445263465 9.815796202512493 15.21197743997321
Co 9.156350670223356 13.431256145563765 14.257856502514784
Co 13.354500826890954 12.25738785067851 10.98793964272191
Co 13.074670426731887 12.261626067915861 15.226651414768051
Co 13.123294087271633 15.882429461454127 13.08071371146795
Co 13.277722170010993 14.723983852704292 10.981633109797084
Co 14.972927566186543 15.852701907451229 14.540868059989712
Co 13.236857896979908 10.979077990146491 13.09627992742662
Co 13.321608274343829 9.788169734780611 10.990170611037817
Co 11.025353988861243 13.430373423182909 15.83585772555781
Co 9.181057374626073 11.019519894857034 14.263403372376763
Co 15.270290347641533 13.48464724077641 10.426860575294153
Co 9.115744181335835 12.229205841884703 16.273455035167114
Co 13.194056114176254 8.634797675706073 13.091360222642678
Co 15.290493127669393 11.0602195178679 10.431546746508637
Co 15.116621749605827 11.047016902344513 14.60968226646321
Co 11.10749156812596 12.242173707612046 13.749722041810175
Co 9.345735488870794 13.459635133467792 10.087355461393399
Co 15.04700825181879 8.711587855902499 14.550201825396599
Co 11.125494007256652 14.701462541397554 13.719898176604433
Co 9.368839616222758 10.984970215245914 10.091177532813528
Co 13.063329002038 14.708992263127017 15.204882736328694
Co 11.17382423604156 9.783616882570984 13.728725580342054
Co 11.377013286918524 12.239126737876335 9.489153228177836
Co 15.090414156108796 13.520412629284243 14.6072287889714
Co 15.25445557848229 12.279770004466275 12.499618925197645
Co 15.348392374623087 12.267110426104905 8.406210177505649
Co 9.499919563101962 12.221647353069157 8.046974217421818
Co 15.15795100790999 14.68837132336541 12.492691635997591
Co 11.339052518702522 14.68122224524702 9.492531418871112
Co 9.494920093933429 14.575250071200262 7.995172531315201
Co 15.20471523887285 9.868109197281095 12.500280828380735
Co 9.400590097698432 15.784917723078586 10.129888264920917
Co 9.534234460304187 9.867461517407135 8.002877896840015
Co 11.225698713685821 13.519708609951042 11.613349022393555
Co 11.382839988153217 9.795570742075133 9.500225619843814
Co 11.49405019360642 13.438020190960756 7.463236675836092
Co 11.249535158921718 15.872101078673637 11.602958704729168
Co 9.466886070283113 8.660335304381448 10.141900682056685
Co 11.512686423792148 11.036397599722374 7.466992529944857
Co 11.249943736308666 10.961563543630769 11.61784549704962
Co 13.404385932438448 13.461762820276062 8.894505965026905
Co 13.44126163903559 12.25025569837563 6.86644866090687
Co 11.31408507668528 8.609873170445118 11.617081795440907
Co 13.42370293418098 11.046145187180526 8.899075864550895
Co 14.964708569303166 12.284966750114458 16.644459143702036
Co 9.230973993948975 12.224401676001985 12.19511295390597
Co 11.04942125434438 11.059277145774622 15.841629772548874
Co 14.907755032018125 14.638585961095746 16.681243206127657
Co 9.2544850781312 14.642168542531099 12.194648862080081
Co 12.978516236006078 13.479775734516698 17.232046571873763
Co 14.963049457020478 9.932028450300907 16.68579010250144
Co 13.006056217471881 11.044855039801481 17.23537310754444
