55
Energy = -317.38817862 eV
Co 13.975879566968764 11.82452408175321 8.069793127104159
Co 15.84381618017571 14.30834924430164 8.551113178868157
Co 13.819417431467208 13.719967440459259 9.30038372806835
Co 17.46165957461682 12.891034662938031 9.323686281214526
Co 10.153047077898545 13.62652147624705 8.887170639877855
Co 11.859830769491776 12.209070140517868 9.059113647367504
Co 11.69335071785232 14.321748735260549 10.429144785683851
Co 13.486133668706529 10.817697408560171 10.099994187784397
Co 15.985569343421401 16.042586223330304 10.01850768185394
Co 15.546631877692926 11.865930452964022 9.76402574861782
Co 15.827998279897802 13.86612192896385 10.915011862431864
Co 12.278584162118063 15.567780708262635 12.32304485499754
Co 18.006136236558856 14.87584280054662 10.31432765001687
Co 13.530094438985598 8.669010083390114 10.810840791114972
Co 11.477446277605447 9.722735029768511 10.206818486971457
Co 13.456679368938866 13.417139570786595 11.506660850197827
Co 14.443432891911716 15.555554878617679 11.700632048903227
Co 9.740829188990592 12.78144502086873 10.932351381507278
Co 14.750685923505161 11.48555022195379 12.048909308870808
Co 16.947011897551146 15.553615045466561 12.206112973358737
Co 10.280259522920582 10.076062474927934 12.270281063365564
Co 11.688904448446323 11.836184437223439 11.317092951936475
Co 16.88745321341247 10.977062874392363 11.540031189095995
Co 10.627174683168835 12.029391729309184 13.37060302751107
Co 8.449333282459598 11.85308143794418 12.587139492479492
Co 17.7731139622451 12.9476154717858 11.760711744028908
Co 10.216289241790237 14.26662371652071 12.691287273670616
Co 12.81044131151947 12.383503096039929 13.501151198977196
Co 10.277063496701835 16.494266843124826 12.539366680984134
Co 12.928599861518165 10.161250509507886 12.407719909010453
Co 9.249816921738697 10.512241251492275 14.406880991493146
Co 11.67950651677726 8.281830167299985 12.137656782706829
Co 16.198082949681847 11.768059375696149 13.846010782242537
Co 17.222312982862604 13.79919406272979 13.728780387863585
Co 15.217102490373867 15.983454055565007 13.786983053012063
Co 17.379553636567113 15.86591663963867 14.535242051279235
Co 11.635901222927105 9.855982704938235 14.26456671849061
Co 8.956044873108084 13.318114459781954 14.414076442045118
Co 14.969788251625719 13.6207531309636 13.27460841558606
Co 14.09562003339741 10.65218480854608 14.41938459467048
Co 11.257813203941604 13.78696303468832 14.831511374488198
Co 11.223272090449663 16.02466954081518 14.526916234328228
Co 15.57124344935967 14.3031835076676 15.448216121033429
Co 13.319036751939358 14.874863476107139 14.332905176854066
Co 10.944513508706018 11.561140678744712 15.61217829041699
Co 9.57421763503148 13.177030826886256 16.580085771533213
Co 13.766309963163346 12.759684288396475 15.556853723577499
Co 12.846900859284128 10.760204312817475 16.39936373031126
Co 10.90760795288947 15.175280098109138 16.67817538755809
Co 12.068612437874608 13.1199496748681 17.25566985478786
Co 10.617574458623485 11.47474151608231 17.864023076901496
Co 13.497794143273016 14.926596057626428 16.586994572703276
Co 8.840400906226604 15.0714544437461 17.578989921968997
Co 12.193747628970737 15.113412812270228 18.50176948184965
Co 10.271906917785946 13.793377013907353 18.706679001544128
