54
Energy = -319.25415682 eV
Co 14.243085410019335 14.23492411221453 11.844094884423598
Co 12.64540739912108 13.172275564805624 13.447991446855507
Co 14.214982311556833 11.91551261889518 11.809597613688137
Co 12.12223393377527 15.115773235698136 12.221845394346504
Co 13.083499140780841 10.724049936485432 13.48132098239611
Co 14.477303432636974 9.534181252200717 11.714406215066576
Co 11.62470334994278 11.727597579449675 15.086165750011249
Co 10.984954502804486 9.571238027007706 14.1994318113404
Co 14.074012639710162 13.199108244080138 9.600887530536337
Co 12.552369291576701 8.5463085606545 12.688398464073806
Co 13.84812045672073 7.283964764914685 11.230571423873679
Co 13.046063069768469 15.219653982303765 10.09348944681661
Co 10.234083503605156 13.76648117146191 12.11189731731919
Co 14.235662848049175 10.918730566788028 9.67524938522462
Co 12.241649814121265 13.006025546020036 11.06531823325249
Co 9.865857706302833 13.087249846101646 14.268542675491211
Co 11.024119488434875 11.657030047163888 12.84117363835925
Co 12.386180965452873 10.431839885882788 11.122469649467954
Co 12.106204070976881 6.115124176021121 12.182269788605847
Co 10.471137908732597 7.395120577206473 13.083828960754106
Co 10.822389075950124 14.766503510220675 10.091974296424933
Co 13.399820932858267 8.815762363421427 9.599016940513234
Co 11.864264921500427 13.18276138658383 8.668673355484106
Co 9.075894158522622 10.881448997199591 13.798928280130596
Co 13.6317062364547 12.002386498291122 7.657058355403887
Co 10.341047814725398 9.600383164849529 11.981778920542792
Co 12.00757882022754 10.6712896001332 8.744112485148667
Co 10.225943414050395 11.621942444843038 10.625657785194974
Co 8.561765754393656 8.661562611510279 13.424026996137412
Co 8.388281917967992 12.445677115179855 12.26463792579186
Co 8.064930409438102 10.257530690578339 11.499585022374838
Co 11.465892465141268 7.793780506699398 10.663777276242786
Co 8.833097764068242 13.399786199658553 10.112356928370362
Co 11.516860165708001 8.28940174984407 8.336857462624709
Co 9.804763662632839 11.828966233600276 8.33179976138375
Co 9.014884724530464 7.924119911738687 11.216464146553779
Co 9.73030472352711 14.1863604132719 8.121672696572574
Co 9.84482618659154 9.50694638044309 9.468588710374895
Co 8.287713112487188 6.298722104087616 12.689176474321826
Co 10.019569291568285 5.881441710755693 11.099908242463647
Co 6.824018902244139 8.13051640215768 11.88684527277644
Co 11.454393255639213 11.91793385581246 6.676872786865009
Co 10.421236543002317 9.878765177316142 7.048378073042927
Co 6.846861604849814 12.237768814115105 10.495813888988069
Co 6.031071037830162 9.965395244102009 10.513407552131731
Co 7.76104174696291 10.718992246648858 9.053915636475864
Co 9.534525030443628 7.106114816120429 9.016177662522317
Co 7.67628468130582 12.883744639680137 8.158040964990011
Co 10.061187797478699 7.5168124503421 6.761927526839611
Co 7.435730203672368 8.38432185237158 9.60555844526514
Co 7.70421333262606 6.169022760417528 10.407277681760469
Co 9.396488719037322 12.885212407033212 6.227240279437751
Co 8.266862510266932 10.955801144563118 6.7648281226702505
Co 8.404268260810522 8.789014671492867 7.609097660389378
