53
Energy = -313.40849628 eV
Co 11.129513867144883 10.0300376820339 6.9315680510813324
Co 11.679358244065794 7.935121419509634 7.893807789957133
Co 13.51734235779403 9.26516031032459 7.193376682347137
Co 9.551837396478286 8.098493270000017 7.0300569471960355
Co 9.190445937567324 6.994458127317516 9.093512082637234
Co 15.057091853210078 11.057557686634244 7.049225506889064
Co 11.287696867266533 7.294462343063421 10.085648871843514
Co 8.893762564463858 10.385778948473373 7.014725621050723
Co 12.817883091206872 11.584069521184453 6.9940277788348295
Co 13.31871552219213 8.231103423158979 9.789265371239546
Co 12.36968004532597 10.185804172044744 8.933802165724364
Co 7.60392098234346 8.599195693866161 9.659457239149596
Co 7.888407277442303 10.721311689777865 9.055774177560151
Co 14.841579057419303 9.854210539152932 9.017698051242215
Co 9.716616700981405 5.879986265898108 11.172518054314162
Co 8.379210882913883 12.610739995010864 7.410257542002699
Co 11.302876906852564 7.408394973812935 12.412826468055082
Co 9.992817223909977 9.253189190700583 9.00446769367454
Co 13.882643326720656 10.033648230504921 11.15216461475695
Co 10.61121450966608 12.44300703734163 6.665311100147812
Co 14.148760598576681 12.050840672275873 8.901252143863855
Co 7.624162537853073 6.828689015856172 11.29845781623487
Co 11.527208051656434 9.535092888848123 11.134095372429567
Co 9.44564909317972 8.292246013957916 11.138579207100165
Co 12.38740817418507 11.783664774281796 10.616299191207046
Co 10.163319523584496 11.574190258503387 8.736568057163405
Co 9.045455916398021 7.17756511613105 13.150766151205444
Co 14.640214053340276 12.246912539721492 11.206355332099903
Co 12.723711515133338 9.181794933597354 13.068745519689019
Co 12.006348256371977 13.147046810506682 8.615504682055462
Co 13.665654256128915 14.026263240512469 10.024743202214381
Co 8.192596754182745 12.904355415897257 9.735589975605885
Co 9.881619275750285 14.079924639811685 8.487983442338258
Co 9.325441302580005 10.747887519517178 10.98586745661845
Co 7.490161734209227 9.173257019379088 12.026165871976584
Co 10.236763343714511 9.385569951339864 13.252866525777595
Co 10.414998555749358 13.033371457250363 10.60404004336072
Co 13.18503923176977 11.541853312013641 12.902641197339038
Co 7.005621899930071 11.28236235562277 11.130901850996878
Co 6.7194674440843745 7.4185464987042025 13.356087901230438
Co 10.790255686642945 11.752037125331949 12.636475239812329
Co 12.507744782109208 13.664453635146128 11.981540203328201
Co 11.473585940435793 14.9945286653714 10.197059454227503
Co 11.735547880191584 10.724861882664447 14.585494771053147
Co 8.14961087142294 8.977707521937043 14.317180454237239
Co 9.095295490602389 14.954159019845143 10.644754800645376
Co 8.540132733437316 13.00790461801178 12.038208834316217
Co 8.419904781756106 11.029534982018397 13.200632153854645
Co 11.937278221899252 13.11816017033441 14.209195820858914
Co 9.513871616699713 10.714315016122306 15.181211806519999
Co 10.39195853456261 14.362543882719928 12.567795030539939
Co 9.562567407487082 12.923013472489048 14.279312959347065
Co 10.911573492512856 12.338789478588359 16.089470555422622
