52
Energy = -308.03351056 eV
Co 8.694475054681192 13.102657470499196 7.843715408308263
Co 10.598658882148902 12.100818324849719 6.721156123941747
Co 12.40307371971533 11.224575280419668 5.637132686990661
Co 8.646937085147947 10.854886495700919 6.748288117846559
Co 7.452058117207204 10.49409426052721 8.723381745906263
Co 10.592804425209433 9.68172014404051 6.203050567688707
Co 12.779608044444057 12.622275361353662 7.6415453154178214
Co 5.723300393070519 11.70900101609226 9.922090134237013
Co 7.82625116294631 12.486401013753111 9.863570961433826
Co 14.263823875924958 10.689473265970314 6.8839229475534065
Co 9.369831373040286 9.016713872654583 8.094096640799988
Co 9.808241571528638 11.238897546035814 8.797118208053693
Co 10.836543070550864 13.418624350307937 8.761015288374855
Co 12.02927193817863 10.43146945344664 7.899238204617627
Co 12.899155638598664 8.997152593142266 6.126459698535685
Co 8.684992226104939 10.32540392722108 10.744231727329277
Co 8.06491716309424 13.546030840547461 11.93795445871946
Co 8.086823806714197 8.188495785769504 9.850776272587659
Co 6.341284621423621 9.596938292867305 10.574932928733665
Co 14.148765442094968 11.32872620542724 9.067867749818722
Co 11.56676476731327 8.06313622160361 7.837120220161931
Co 9.109501463691593 14.474939701435495 10.019044324824982
Co 13.235721617966808 13.614665381525798 9.73017379612944
Co 6.667204206404459 7.422817243825522 11.542159175553687
Co 10.157091312061967 7.109477038803693 9.48980077767725
Co 11.985257298225953 11.697097818011603 9.99098138618633
Co 7.582543758320766 9.228843612261901 12.567866742803607
Co 13.722216302358369 8.929981402100221 8.46844675601228
Co 10.975982224674429 9.301569295853437 9.859428617223944
Co 9.93142082873732 12.482968475607933 10.929251143648782
Co 8.654984526197735 6.210829916361089 11.225932369263433
Co 6.846255896475839 11.472672634424937 11.943972793479459
Co 13.478673853708665 14.24464985326542 11.982593729547776
Co 12.517030629399107 7.570339076591241 9.972246316766478
Co 9.710515504536959 8.257492146629044 11.704390794920124
Co 10.172977800166077 13.756284999101945 12.965812094078421
Co 14.073899062302072 12.038003110923757 11.306142565673106
Co 7.455994555569145 10.762160714466589 14.186654321731048
Co 11.071667436159448 6.355074365203968 11.515394678953093
Co 13.260148732739179 9.798235844793622 10.635277385051502
Co 11.335099756824768 14.362888602984903 10.93711915930224
Co 10.904507054472296 10.426449551190546 11.972645351302155
Co 8.381336062137542 7.144008409800449 13.325046640371726
Co 12.099376896795627 8.389820364608177 12.163610940201213
Co 9.719251907679075 5.274659669116084 13.062696058566505
Co 9.079577197421685 11.651832420772768 12.954744943519312
Co 9.614648439057687 9.439365071021033 13.847199773698911
Co 12.028042339128282 12.540429342793907 12.35391784865036
Co 10.68392113638298 7.300455231068244 13.673072514717846
Co 13.08747485294162 10.494561767342711 12.904195335825701
Co 11.058768815287602 11.41433926742649 14.120751071394533
Co 11.893807829506557 9.20392747431571 14.418326239562985
