5
Energy = -22.26473377 eV
Co 11.217733366655155 11.214031940748866 10.663877873220603
Co 10.027897965181214 10.618867925730658 8.914269266393136
Co 9.110793135285494 10.958000617076717 11.05505020836287
Co 9.129644338659583 8.908343568197752 10.262966399044693
Co 11.238483530283272 9.025421938550693 9.828457446925484
