52
Energy = -308.0092109 eV
Co 12.117831950418987 12.502359278737293 7.539424232807673
Co 10.026641050809483 11.700798367230139 6.148880004618015
Co 10.084804947622551 13.642985408847712 7.405548445841746
Co 9.845719835454151 9.298088358895864 6.753694207095923
Co 7.5716114496510425 8.457581584610118 6.877856647396401
Co 11.709484268377086 7.675367313630906 7.274457435254939
Co 11.82827329965992 10.31805232097148 7.081023371887002
Co 9.388205470651691 7.322916314624632 7.884267874029566
Co 8.004754827127108 10.822147606983679 7.050603258301714
Co 14.05883770229673 11.393609230540596 8.480282642461415
Co 11.904407790019128 14.922538753391283 7.990386331632664
Co 8.005464842899839 13.017441469152278 8.05541882552154
Co 7.606587705771523 7.259691857228523 9.445828677320204
Co 13.371631570178792 9.141498384036051 8.248550382050697
Co 11.167600893092704 13.297923321491666 9.595136959933189
Co 10.849512985729621 6.4655723464782975 9.394140748679009
Co 9.871876786303567 11.433259229986092 8.448979889395737
Co 9.466590863282144 14.885971214338337 9.311714156415068
Co 6.265416400409594 9.248096724486466 8.578954978135432
Co 13.460140434063657 13.611339904985616 9.122793168335352
Co 8.584326676248907 9.33113502324033 8.805275856525919
Co 10.953136342434796 8.971180396738202 8.947677707191131
Co 12.785365498216885 7.611607920178103 9.805033273876537
Co 9.509473221696297 8.037361749418633 10.626484113099897
Co 7.392975003133274 11.220814475340648 9.407140819059164
Co 12.035655143080621 10.983748942948045 9.488660958699457
Co 7.174465613091429 9.26068532243818 10.717189748539635
Co 11.535683478464772 15.641815082969568 10.10851428826049
Co 8.828759454345873 12.864798625123488 10.29484069861844
Co 13.85115005448844 9.689492042932793 10.469383567660469
Co 10.277337925454459 14.210004307019783 11.559104174713283
Co 12.68603435446567 14.029729289841903 11.325123770395665
Co 9.19660865560555 5.783085377645918 11.04681739383713
Co 9.653381680922665 10.644458359917595 10.74823073025843
Co 13.785322139308391 11.941914709776364 10.834842153303416
Co 7.493737195824819 7.246874158772075 11.868746505088119
Co 11.606282284522587 9.251606361535679 11.271848496414579
Co 11.445728853512625 6.888607340288289 11.632306335730874
Co 11.5642357823875 11.996615223088416 11.645154639577793
Co 8.835050890478259 9.247327507817571 12.550535714602406
Co 6.6000896642181965 9.47363991409533 13.017402441397996
Co 7.56463935662357 11.302707700380576 11.801062373027339
Co 13.553303611350767 7.998608135075776 12.051112288478405
Co 9.408809207091556 12.33711056905301 12.600870225294713
Co 13.084874509845934 10.394661039325563 12.618067826663571
Co 8.089537868848877 5.561284273573255 13.209339885319253
Co 10.695661142792673 10.487617640365299 13.246344977672642
Co 8.342331599990384 10.829582883385678 14.110405239307465
Co 9.68816189458485 7.117950962183265 13.096135745034886
Co 7.723623815676896 7.824390514246974 14.169133656193202
Co 11.708816503998744 8.426925131072547 13.47324050690733
Co 9.69462621164427 8.930000737733806 14.720612360307307
