52
Energy = -307.13226381 eV
Co 16.80192119468808 9.681095462240796 14.107895358874961
Co 15.964651038689379 11.212601917703342 12.488654873101861
Co 15.921310593492372 8.941859693680941 12.144891655409385
Co 14.988837501527497 10.977471836489713 14.646333709828298
Co 14.940649685261011 12.732729322521449 11.028303897156523
Co 14.659020893943593 10.193443319502567 10.434833772921444
Co 14.666627750196103 8.675981396520607 14.190225265780738
Co 14.217723841766684 12.00269691594056 8.989425354199412
Co 13.98223611854087 7.711767105503399 12.006105522713424
Co 14.029777896659233 12.495432238013635 13.16855571754973
Co 13.89569295295613 14.362751040652252 9.597801468980839
Co 14.100616893293521 13.722047125591153 7.3655323299738376
Co 12.475196923890477 9.140375759331553 10.925343981885108
Co 13.925000832002139 10.13682683598965 12.626518531987392
Co 13.25838676474623 12.768920591936439 15.356274546398241
Co 12.307032650296543 8.43987281259029 13.38589584432095
Co 12.49481402465392 10.398421993399376 8.88315893198032
Co 12.841227749133855 11.630245088960702 11.073318680201128
Co 12.90931859995337 13.949081570037139 11.66281882885478
Co 11.13840953576776 11.947553995377378 15.751267238421194
Co 12.720947029528936 11.938456760314578 7.104774499791442
Co 12.24503911245354 14.87099925503321 7.933434860996203
Co 12.649946242944933 10.631219665698094 14.541273865601228
Co 12.025480894039417 12.888961930298548 9.229152356130628
Co 12.82116568595297 14.582256682777588 13.988481196758565
Co 12.005125631811849 6.88702422940462 11.106082242853107
Co 10.69039018505269 12.870344202853243 11.25534110369023
Co 11.161054084917913 13.480571544466146 6.5345293534112505
Co 11.632772829171218 12.653202457241633 13.436578564039714
Co 10.613710286287432 14.076522519730961 14.874978034145277
Co 11.145516140960709 10.459982996734228 12.566294117509731
Co 10.693674893167051 9.485543190468182 14.745376397469055
Co 10.920555217018187 14.900412597058121 12.57492742551691
Co 10.481229785359247 11.67971787219013 7.905207967498035
Co 10.696464313061831 8.461221343403592 9.617207884413553
Co 11.42642694743809 15.008793232699494 10.190944758967422
Co 10.603743029068507 10.726876607223177 10.139649099379174
Co 8.870211244951085 11.321618481753847 11.828948091937486
Co 9.550490647124665 11.546075665662773 14.187398968024057
Co 10.43035731044419 8.19872157148249 12.035682404210725
Co 9.166098223583862 14.57295168543704 10.785608707862067
Co 8.880453763658174 10.149305449072834 8.67567539045643
Co 10.046055911378607 14.033464181956472 8.557064114508321
Co 9.147031563466323 13.500835251425043 13.010948580135107
Co 8.911721347474018 9.456373178060081 13.27788931366063
Co 7.408227199377065 13.080487127215962 11.417526411817596
Co 8.762375841933018 9.214110958371032 10.796468050558705
Co 8.930379462028398 12.3779186576932 9.634838599334692
Co 6.905235075799692 9.885139326215072 12.249783169432042
Co 7.275117350301116 11.853387504654028 13.445370423225858
Co 7.169404211650294 10.953894097395628 10.226929529603337
Co 5.5970829264576505 11.72965414697453 11.811269231635869
