52
Energy = -308.10718176 eV
Co 12.041778322330934 13.409442805775697 13.221579487992479
Co 13.42587019588895 12.676847935165299 11.410301763617035
Co 10.436088485027879 15.129389518162181 13.045843294244122
Co 11.244130538744367 14.247532611687594 15.161071004984636
Co 10.727253733233855 14.543150195804355 8.77135655722938
Co 9.842856385694533 15.706764343245041 10.667835376127247
Co 14.01946575708401 10.35316038477794 11.109680440490381
Co 14.608706771447558 11.895059584623796 9.507677387933695
Co 11.408074449809261 14.082047909472431 11.097847239087239
Co 12.50394625151275 12.98864287096355 9.27275775162145
Co 12.615595627279736 11.039955678866399 12.999585761092554
Co 12.912632804691777 10.906349278777148 8.264582033884802
Co 14.714787276823984 9.50722426740827 9.001360724831715
Co 10.40891303374215 11.845876810846997 12.31473104736084
Co 14.25359319414841 7.979189513948079 10.77386922605391
Co 11.82703181147168 11.112890003674645 10.678717338194733
Co 10.940698555367424 12.368117239159762 7.607643523503818
Co 9.160948729434098 13.714343920336072 7.131987695751255
Co 9.548303786188963 13.196613283209295 14.025587637259143
Co 11.345042428075027 11.863963505586298 14.849216266410515
Co 9.055744652592821 13.772610205781644 11.723364247304053
Co 8.527475501886745 14.259840369179427 9.365384895781158
Co 13.293093363271963 8.787713788908423 12.759959039789146
Co 13.183523886411177 8.618069306937269 7.493704926865008
Co 10.096878700323371 12.573233599332246 9.891712938707562
Co 12.472023253274635 9.080720138497318 9.736778144105573
Co 7.455381654432162 12.496334768782265 10.526915373927569
Co 11.70756700261931 7.342351472812341 13.631499822687294
Co 10.951732910857558 9.338443765067478 12.407611407589481
Co 8.458827364095004 12.006669421718426 8.393953118791464
Co 11.751126617306756 9.524264516933608 14.59225071581977
Co 12.788593290780637 6.843693600410584 9.12247289385395
Co 11.437143711180592 10.003164904267269 6.629897415691044
Co 10.573829815280927 10.412476701553247 8.754256869276134
Co 9.602485249999921 10.557073955908361 14.136159989905693
Co 10.042810491700342 8.571311758598478 10.225797988973598
Co 8.092653225478477 11.646457749174354 12.677872209059524
Co 8.862227747193135 10.626144432757828 10.609145221422047
Co 9.341885893630769 10.926856375191115 6.545859148873719
Co 12.00570644106946 7.346618616775397 11.307120081867268
Co 9.762306431968298 7.132911253197103 12.10006387916051
Co 6.758567328492083 10.601627259833615 9.295534672966644
Co 10.973028098154263 8.059501113242947 8.083765824668502
Co 8.490606978110716 9.159367393439492 12.434211579140637
Co 6.63476741903098 10.279144219048854 11.493761442287477
Co 9.687598404670464 8.232275030384171 14.261107903686947
Co 8.511422223135806 9.50769888204781 8.278437778434917
Co 10.522780637430953 6.338813280244474 9.794151789071618
Co 9.495935263961787 8.583583649196694 6.406464111023291
Co 8.76584143462116 7.241587063095702 8.555492107349664
Co 7.654184276772324 8.481853425445804 10.31883521270176
Co 8.265108284334065 6.251960426588352 10.60729087425202
