50
Energy = -295.33866558 eV
Co 14.214823756688654 8.877653116071626 11.481226297710846
Co 14.631937733896933 11.187325262970761 11.206739440922194
Co 13.0427732137369 10.404142856077664 12.942867232183586
Co 14.362943701277304 8.979456008667052 9.207858438280299
Co 12.500443147236444 7.796623302087039 9.888887432103914
Co 11.973304549866233 8.460852104838787 12.022190404818856
Co 11.248647799330897 9.316068648502961 14.100633639609995
Co 12.626441758160034 10.288324139877815 10.415877264996826
Co 10.47705328484308 7.007768463664254 13.323482270151628
Co 11.40905504492368 12.019645792339636 13.996702142244853
Co 10.353217846513452 7.105542990424231 10.877191968323046
Co 13.299295190419269 12.610098914366501 12.621276071440024
Co 12.322188671961811 9.490431015842038 8.12656000263271
Co 14.214241147431496 11.239543114813342 8.893508594536549
Co 10.674969234521283 7.495701051019454 8.530632592158373
Co 10.916216236504741 10.884984423013407 12.12321793821236
Co 9.649915202522426 8.879220213517593 12.342879822907092
Co 8.847834271552241 8.29735054545003 14.37715414574347
Co 9.378296538284062 10.65231427568516 14.031821773812972
Co 10.470288760903413 9.3730170899226 9.987386413529922
Co 12.951962091051685 12.66564287708605 10.313172199770197
Co 8.243671613757867 6.983329894052579 11.96866562435008
Co 11.707285719381858 10.826210006219505 6.195180751728417
Co 11.29416393274879 13.393156877073974 11.72353140990131
Co 9.410718920039361 12.766635306324035 12.827879685288284
Co 8.423143946567777 10.902180532844485 11.939215538696498
Co 8.18575314280914 8.848295923243414 10.516560631255349
Co 7.27772488881605 9.016969520764205 12.70571262580196
Co 12.103286395953454 11.992845642541237 8.238552684502807
Co 8.462283887453456 6.842220741102986 9.402675372600815
Co 9.351669957546896 14.272114116457741 10.829798206946426
Co 9.027702611957753 6.635901365944907 7.117074161596358
Co 10.697711911972858 8.699218702095118 6.532803849192563
Co 10.465575085519507 11.894779727403252 10.089787433184338
Co 11.090877013472129 13.912193796888653 9.152627004135915
Co 8.4089633027139 10.902554601059817 9.543527401370161
Co 10.24464686295515 10.640329063387632 7.98923600797311
Co 6.3488717826152365 7.6508203569931466 10.138540903647618
Co 7.649166452633596 12.740335419627831 10.857108730677973
Co 8.695587152852458 8.8604828251341 7.951764418668299
Co 6.41023773558316 10.445801951162245 10.87874019513302
Co 6.834975350702342 7.474302815680404 7.767284138022359
Co 10.220479961943997 12.725464984791518 7.005839110234969
Co 8.853707875040936 13.133273255866666 8.82205972407043
Co 8.592622462927627 8.22519424981278 5.546974383380149
Co 9.34641592083138 10.43454989333808 5.810449070727586
Co 6.536923119251022 9.588664619749663 8.750422459097107
Co 7.933406559514565 11.393703238140148 7.350649305831735
Co 6.418431069772018 12.051894563395948 9.013801042398699
Co 6.929639003072876 9.493954102395772 6.423462761550648
