52
Energy = -306.76142338 eV
Co 6.245380199022054 9.85851227309517 11.242919728126461
Co 10.012179406594052 8.800425876763587 10.493180200016281
Co 5.020170455313146 11.744935609441807 7.563073217918706
Co 9.722374909742049 12.419588821830548 6.03788623150983
Co 8.82690155652497 9.585249382908277 8.576295060649374
Co 6.789287217293607 6.393304366717198 7.6882174659454
Co 8.941194165093147 5.06014901913771 8.103287005764711
Co 10.321376113172812 10.894556821160512 11.783366578280337
Co 12.655940463048413 10.682540941532558 8.523314447649835
Co 8.489025594288586 10.533866425892265 6.344143785305896
Co 11.392587937899457 8.494085382770255 8.598834920291974
Co 10.886963035676255 6.626178409796945 7.081425637236963
Co 8.237213255808799 10.717674599564475 10.46831554734008
Co 11.97933749341254 11.978229445114719 6.017142482030466
Co 10.804842007505757 5.961741893891158 9.326015092735206
Co 10.430334516467983 10.225120305685751 4.9587850093308985
Co 6.209024274616691 10.342462226192312 5.73184497113733
Co 7.1006179098033355 12.380621395807323 6.553514448111999
Co 8.720980921545326 12.037082208157699 8.311584276522167
Co 7.285735199046253 6.027674296984042 12.136882554764021
Co 5.0115982533107015 10.084755234473795 9.375151788703183
Co 7.981713793434121 11.512240887754121 4.4225126369876016
Co 6.544227384645101 8.254847315631508 13.012670475206379
Co 9.22219328089843 4.9223256692654065 12.855181594900879
Co 7.837144103619942 8.119982687812339 11.115276952049216
Co 11.832078318970702 7.341946453484211 10.909426584102945
Co 11.018719767079293 6.436509806376647 13.172864454310808
Co 10.729693880964076 10.586681471828076 7.239965223432073
Co 8.970265150099035 7.293924364053152 8.578333066031979
Co 6.789380951404086 10.395373995498925 7.976434280305143
Co 11.22838166106713 4.890291445456519 11.462098881021562
Co 11.215550925462294 12.672158989437627 8.212248763889136
Co 10.566816574677008 10.86443401042838 9.511771484918603
Co 12.002525251119868 8.85629705385626 6.2681925252043404
Co 7.476296606844818 5.995444725651647 9.866599129918045
Co 8.688445984841723 6.485079247954811 6.190104053468887
Co 8.367830340464268 8.931436381861323 4.701255361222816
Co 7.340679450570507 8.390270777019525 6.745575311731406
Co 9.570749185657945 12.760832539667302 10.36934264837452
Co 11.8937531531273 12.373801155154773 10.542860162810872
Co 6.522001575614389 12.006768874843539 9.483559538434676
Co 8.481839466161787 9.683501980704149 12.659273075740444
Co 5.582558367775927 7.51024010411931 10.976882099126165
Co 8.794837373999128 7.405506856464995 13.327136296611606
Co 5.152682771596044 8.806655940786394 7.304154986436501
Co 9.137417874435624 4.4615920422651705 10.374922870885174
Co 9.735202310588656 8.534158526208682 6.589867005252719
Co 9.590838614633613 6.555375976958351 11.286528471202146
Co 12.185466190032612 9.709083821152262 10.721452244473896
Co 10.503509320067202 7.706716257903753 4.685284688215517
Co 10.641134511464706 8.660497856927426 12.677639763469854
Co 6.576193406539307 8.290460279598268 9.10859735393516
