50
Energy = -294.75131822 eV
Co 14.32302407156313 8.832464130934296 7.814524195681962
Co 12.599726849876488 8.502797677216812 6.298033933215426
Co 12.716322291756583 7.270727310026828 8.618897590035514
Co 12.985417261276517 10.919499114080214 6.529032705921623
Co 13.367424540360192 8.999319758203445 10.164522937157091
Co 14.093110257099 10.981515970166312 8.714419498357003
Co 11.704111018734976 6.55983853865177 11.203867172971924
Co 13.367480504145231 11.141015056549788 11.10524328623875
Co 13.735534628874126 13.232178201811323 9.835013692841686
Co 12.162898258641214 9.632495288049627 8.26948472182409
Co 13.24239844020022 12.986960443846243 7.509500536325386
Co 11.928841326156103 8.880619221751479 12.123477845257947
Co 11.077344020806294 8.26246335079315 9.941219714099606
Co 10.695874758810577 9.927413982651968 6.262896071688039
Co 10.673415448283622 7.824494947039982 7.476678631888054
Co 9.252180578292897 6.759145167322499 11.17697702147049
Co 10.48169211461689 6.139344591903667 9.115543085007394
Co 10.416996361923815 7.345865269312718 13.091378227457602
Co 10.959777780253797 12.064852422016735 7.1429605297226395
Co 12.040446766093458 11.884110229468003 9.131462325744693
Co 11.13448482379146 10.520836484654547 10.638475573777798
Co 11.807975451140265 11.242566720714619 12.926565704247906
Co 11.414522548456068 14.062924234415133 9.19111906915359
Co 9.485007862097978 9.054391564855635 11.510181119966
Co 11.828141136188608 12.97685269147603 11.239011827702937
Co 8.127286668210608 5.710358926258396 9.4043274662809
Co 8.869152187517793 8.042970948130414 9.122127506345679
Co 8.68959773005566 6.549042162887591 7.321132439941957
Co 9.7748760808954 11.835545903273786 11.97919179858443
Co 8.696362308381996 11.37463110677264 7.037308947652021
Co 10.7253416658663 13.551226386346757 13.216495201414189
Co 10.15898284190838 9.64246483622657 13.595029259845905
Co 9.618836213065089 12.50658257986243 9.242859678064734
Co 9.868540831095146 10.164765195606604 8.565152144590506
Co 8.638024239544603 8.869296636041245 6.855372855680651
Co 9.758644423312216 14.077943516717976 11.083312912801645
Co 9.778400529141297 11.775459472334946 14.369553990426379
Co 7.93259165563102 8.05367874826716 12.835869088745815
Co 6.887905974654977 6.617476712894126 11.16690955307077
Co 6.7266683370317635 7.450306866475664 8.752050662143853
Co 8.404653073302638 10.779029850598517 10.366817874332746
Co 8.218191053356918 13.039785337961316 13.167653771806368
Co 7.109452124577099 8.793533679408373 10.638299010732636
Co 7.274000042993826 12.156627605128138 8.728433685985244
Co 8.025767575319335 10.53908909808303 12.922624586225687
Co 7.321157868917237 9.852278702212804 8.463786423352909
Co 7.745550050018636 12.943351845663193 10.880100143705262
Co 6.009928971827099 9.574396534863059 12.426905130441728
Co 6.0420235712717 10.959319803705089 10.371168930778968
Co 6.26704528831817 11.931496920498756 12.421388504082241
