55
Energy = -329.82921956 eV
Co 9.315111821952629 11.688008565950678 11.030646141406478
Co 17.386278691307542 13.845703561638881 13.118207258700762
Co 14.642554000793528 11.320421259704196 14.400850547008131
Co 11.86846732453422 9.250133201634371 13.074282399804865
Co 15.286419953546124 13.822090500372033 14.266478606044483
Co 11.889054783873796 11.477064127946395 16.6265831005621
Co 13.312450028886087 13.099781983033619 10.794521479486479
Co 12.964792245475309 15.286676399634093 16.569513866438935
Co 15.792734618122685 10.140197287927926 12.539255637129322
Co 11.317838275891361 12.353676851459452 12.094926380187012
Co 11.226937047794667 12.45727653043662 9.734553785098703
Co 12.084305285288364 11.32804943325366 14.230192332369977
Co 9.140094575293121 14.253950070731229 15.173350966329831
Co 9.226399799618271 12.977530563044246 13.094741071649239
Co 9.986238249363028 11.948878754070094 15.224678566488917
Co 13.01807543921506 16.56050902897061 11.076562455514784
Co 10.60553078092605 16.38494046772468 11.053444482857747
Co 16.40553335546043 14.52239842491157 11.04299060201962
Co 11.760953086832085 16.867753080809585 13.150809554263043
Co 14.068115172108277 9.122310936457332 13.508373735482278
Co 14.40831438948859 14.88867373518634 12.135577577190627
Co 13.213815019805 9.807100119060994 15.593499469195516
Co 10.793926355829678 9.663121581880725 15.199269696439694
Co 13.124191764345724 15.21784768541847 14.217777904293998
Co 16.913267860672313 11.701474044738811 13.74692075380305
Co 15.486489161529507 12.555554287369242 12.027845153554155
Co 11.029286687518118 15.803589723565507 15.211201510112483
Co 13.19776247084357 13.126803614307018 15.534015274328613
Co 13.348128686158077 13.057302750172644 13.181963650651209
Co 14.367538668057339 11.561630208080796 16.759778033312042
Co 11.078311904701874 13.738746713678335 16.52585806189813
Co 11.20898235967076 13.661430054938666 14.183327396916049
Co 18.49197093234572 12.90270322296438 14.928665286298523
Co 16.238847807381177 15.855305621350462 13.266984868395042
Co 15.448600803776566 16.747873877937728 11.13461738593391
Co 15.019779778108855 14.079518556006697 16.692921265385586
Co 15.00146928375912 16.03043879285854 15.309479568487257
Co 14.174758964272383 17.048011094914315 13.169401432464582
Co 11.94134201380485 14.775571009973845 9.752386400126301
Co 13.390468482819298 10.977830332883977 12.12485621006764
Co 12.929171334710373 17.334369411143346 15.242718853139285
Co 13.087222401200332 11.009683518830364 9.649346425537662
Co 10.003923181894304 10.694370132077548 13.145825868421987
Co 16.410367966321648 12.424099266543104 15.851590532621813
Co 15.152260888162335 10.706951354652706 10.487522613851866
Co 14.335101868224962 15.027657367715241 9.766755489818548
Co 13.044487628602214 13.25288357009057 17.880707987748345
Co 13.197599814448484 13.14645200433989 8.483148767652956
Co 11.952533566337479 14.73601991838211 12.09967444377264
Co 17.088165324525388 14.696608390828509 15.36744848428634
Co 15.33960608194022 12.889388263123942 9.649134903642885
Co 9.87961643546055 15.331171638318496 13.122431128403452
Co 11.328847216460122 10.277058078924624 11.027013067258974
Co 13.547646677048975 8.961251364210034 11.106774491100582
Co 9.9579357958023 14.033781776132171 11.048221187356566
