55
Energy = -331.86184565 eV
Co 12.303672589640593 12.303672589640593 12.303672589640593
Co 12.303672589640593 13.550291686324101 14.318667690028592
Co 12.303672589640593 13.550291686324101 10.288677489252768
Co 12.303672589640593 11.057053492957436 14.318667690028592
Co 12.303672589640593 11.057053492957436 10.288677489252768
Co 13.550291686324101 14.318667690028592 12.303672589640593
Co 11.057053492957436 14.318667690028592 12.303672589640593
Co 13.550291686324101 10.288677489252768 12.303672589640593
Co 11.057053492957436 10.288677489252768 12.303672589640593
Co 14.318667690028592 12.303672589640593 13.550291686324101
Co 14.318667690028592 12.303672589640593 11.057053492957436
Co 10.288677489252768 12.303672589640593 13.550291686324101
Co 10.288677489252768 12.303672589640593 11.057053492957436
Co 8.308705013377706 12.303672589640593 9.834739227687527
Co 12.303672589640593 14.77260524727391 16.298640165903656
Co 12.303672589640593 14.77260524727391 8.308705013377706
Co 12.303672589640593 9.834739227687527 16.298640165903656
Co 12.303672589640593 9.834739227687527 8.308705013377706
Co 14.77260524727391 16.298640165903656 12.303672589640593
Co 9.834739227687527 16.298640165903656 12.303672589640593
Co 14.77260524727391 8.308705013377706 12.303672589640593
Co 9.834739227687527 8.308705013377706 12.303672589640593
Co 16.298640165903656 12.303672589640593 14.77260524727391
Co 16.298640165903656 12.303672589640593 9.834739227687527
Co 8.308705013377706 12.303672589640593 14.77260524727391
Co 12.303672589640593 16.329250433631284 12.303672589640593
Co 12.303672589640593 8.278094041330151 12.303672589640593
Co 8.278094041330151 12.303672589640593 12.303672589640593
Co 16.329250433631284 12.303672589640593 12.303672589640593
Co 12.303672589640593 12.303672589640593 8.278094041330151
Co 12.303672589640593 12.303672589640593 16.329250433631284
Co 13.547724100892868 9.04658353507528 14.316737961579332
Co 11.059620374068565 9.04658353507528 14.316737961579332
Co 13.547724100892868 9.04658353507528 10.290607217702032
Co 11.059620374068565 9.04658353507528 10.290607217702032
Co 15.560761644206082 10.290607217702032 11.059620374068565
Co 15.560761644206082 10.290607217702032 13.547724100892868
Co 9.04658353507528 10.290607217702032 11.059620374068565
Co 9.04658353507528 10.290607217702032 13.547724100892868
Co 13.547724100892868 15.560761644206082 10.290607217702032
Co 13.547724100892868 15.560761644206082 14.316737961579332
Co 11.059620374068565 15.560761644206082 10.290607217702032
Co 11.059620374068565 15.560761644206082 14.316737961579332
Co 10.290607217702032 13.547724100892868 9.04658353507528
Co 14.316737961579332 13.547724100892868 9.04658353507528
Co 10.290607217702032 11.059620374068565 9.04658353507528
Co 14.316737961579332 11.059620374068565 9.04658353507528
Co 9.04658353507528 14.316737961579332 13.547724100892868
Co 9.04658353507528 14.316737961579332 11.059620374068565
Co 10.290607217702032 11.059620374068565 15.560761644206082
Co 14.316737961579332 11.059620374068565 15.560761644206082
Co 14.316737961579332 13.547724100892868 15.560761644206082
Co 10.290607217702032 13.547724100892868 15.560761644206082
Co 15.560761644206082 14.316737961579332 11.059620374068565
Co 15.560761644206082 14.316737961579332 13.547724100892868
