54
Energy = -321.87669568 eV
Co 14.574342011775256 10.339638201501625 12.224190454919222
Co 13.255183674104329 12.02294037792023 11.025845673850036
Co 13.005893696768442 11.652345737315855 15.86838751032189
Co 8.208902306805124 12.58432190405939 10.43060933298127
Co 14.152116162803416 13.467251531767682 14.913918241916388
Co 14.386556130320301 10.137879783829625 14.632722704451378
Co 11.879525629675515 13.601406252629927 12.318090982819644
Co 12.009599196382066 9.911141274205251 14.554925172360399
Co 10.526582153206979 15.07668866781529 13.68619782952025
Co 15.722287135056428 12.164937774877568 11.218917802291406
Co 8.735312653076145 10.827504690242172 14.241459758930752
Co 10.140468854868168 9.21877889471437 13.137648005029229
Co 9.47909281289304 13.4830229472744 12.211795729318725
Co 12.176273677018314 12.766925522686192 9.032004291007212
Co 15.566518380846333 14.465795454227244 10.643964748141142
Co 9.193027666114034 10.768106221105013 9.322725288357395
Co 12.211265284453605 10.211186713999236 9.581480414323494
Co 9.79669436159625 12.955692771518033 8.747069953356888
Co 13.178513245693958 11.83675814690899 13.524947270248981
Co 14.57172398788191 12.789128942414443 9.232077399243765
Co 10.980285999343453 11.184523564776615 7.7589564011764125
Co 10.747884470519407 11.906889383236598 10.759345434104953
Co 9.279042854048543 13.107495152802889 14.548331190884419
Co 7.531341039053622 12.459301927087626 12.968017404698914
Co 13.660763480781046 8.608769225774376 10.91069019057811
Co 14.322798742155529 13.755731278635272 12.51040703169092
Co 15.579535362722922 12.034043236606472 13.693888173812994
Co 12.936137721330107 15.196717109711061 13.80251608469017
Co 8.897240632537113 10.85624292931679 11.869643909358755
Co 14.179570752592458 15.984735611759392 11.978206398181483
Co 8.163664219008334 14.95330227783207 13.651832596728937
Co 13.203560407536086 14.416555376583252 10.477209108099805
Co 16.63246437134484 13.7814556316586 12.609070029793935
Co 11.703174609527036 13.318732147559412 14.742838349832908
Co 8.573122391001874 14.803847945495805 9.674688306733621
Co 13.433764725322723 11.180904426783602 7.83948692551539
Co 10.58929031419381 11.444061226866719 15.715340053032037
Co 11.826141626997654 15.897900197539593 11.811525086559637
Co 13.461215954391198 8.44188901728524 13.297633463822693
Co 10.303655218754344 9.28161359636364 10.723124457140145
Co 14.667801579854048 10.509775536497072 9.805832700463206
Co 10.787692933203488 14.353189585906735 10.306181845593771
Co 9.446642413753226 15.770988796243422 11.681286114984317
Co 10.713775594318605 11.619477849519622 13.286186801387728
Co 12.1487922058444 10.06292693379878 12.059443987589171
Co 13.768162404515609 8.774753042903718 8.47750638745784
Co 9.980808753341224 9.23059649508978 15.495568661879584
Co 10.39544783511344 9.00073706156001 8.316433429698524
Co 11.915495185588467 7.8450046806490565 9.586496705355598
Co 11.490036063827352 7.67648026919066 14.295370697269547
Co 11.637134458065205 7.758741463740044 11.947196756541343
Co 12.199811883771606 9.313250772942487 6.969405677876164
Co 7.3447231160291535 14.433241871515573 11.585584736086691
Co 15.359781892162577 11.746335862084457 15.959106362799414
