5
Energy = -22.26381922 eV
Co 8.482219607610446 8.334096904194775 10.0973497236636
Co 8.832524424961276 9.314542701709849 7.171219518907005
Co 7.364809371380015 9.617116239651256 8.775736620445162
Co 10.033865226451018 7.984699279133331 8.378911129345301
Co 7.927385304486438 7.395146026270028 8.18732568539309
