5
Energy = -17.87570936 eV
Co 13.426886715804649 10.274368020082644 9.38486081623376
Co 12.778009254220152 10.914853692563003 11.112331863600662
Co 12.06473936120579 15.422713173829916 15.358130226930621
Co 9.851345466212598 15.115765926618284 15.245144629354778
Co 10.907432410374069 13.999237349215285 16.6320696093987
