54
Energy = -317.85965293 eV
Co 14.97088790162149 13.475844545171002 9.585381090179961
Co 13.940063535113596 12.694507186878932 7.609629654784663
Co 10.375616438421297 14.435883950518912 9.023344766345064
Co 12.709097727807686 15.00155760919391 12.977960017076397
Co 9.36792315140865 12.50524038329855 8.693334374021099
Co 12.611096248642765 13.96508614932555 9.141176962138335
Co 11.432356496355224 14.731438898120222 11.086617405523285
Co 13.46403091887504 13.501442924700104 11.386388215244201
Co 15.467025065149866 11.352485191041795 8.848345826104477
Co 14.934642569932366 11.549784063464793 11.384085171978528
Co 11.591221047048036 12.08511555504979 7.951801335870959
Co 10.185234418474462 14.67251528106476 12.996725291310543
Co 13.328705707143108 11.81473160065654 9.68559963048952
Co 7.300931832326801 12.694308912746317 9.746473364434202
Co 8.961101986685131 10.931656408064912 10.307958420338487
Co 7.597226268426214 10.928739006978423 8.210243935591397
Co 13.417068396458886 10.354862092708467 7.851912652168579
Co 9.131913412196122 13.707509431153827 11.027271120619067
Co 9.669015975005735 11.136509179559273 6.914748192010271
Co 11.707542801135203 12.973677438951075 12.870467250699749
Co 11.09712210740955 12.40309271894849 10.476220684735615
Co 6.9219252585218545 14.256033779743332 11.46925286218584
Co 12.668580509598213 10.888881867454794 11.913294146065779
Co 14.170562960395962 9.680778725074205 9.99206018470466
Co 8.16718181652447 13.676026647712574 13.375812230299266
Co 11.358280932747126 9.566583286734588 7.209926261182322
Co 11.523592008685315 10.212628057091967 9.50446185028428
Co 14.454273135709492 9.388973701337235 12.281222904852969
Co 13.882340392620433 12.31122498837118 13.385460895155411
Co 9.314207291907655 9.377015325348053 8.402777012159039
Co 12.661440144257874 8.249275702127978 8.806745532116441
Co 12.577155488806142 8.461387256094193 11.183879977349202
Co 11.499860395790048 11.096677154717074 14.175744772402052
Co 10.060035193594139 12.913492597921033 14.674766318388524
Co 9.644420743924346 11.900566603310363 12.588343747792601
Co 10.48133298767833 8.113592659725338 10.077044562510586
Co 7.310377179252621 12.046514129563551 11.975097152802784
Co 6.991961240943555 8.735952286134061 8.672973411563898
Co 10.725288187034451 7.3387082851420695 7.857913937327348
Co 6.711399159425796 10.398984890838124 10.338480591254635
Co 10.534890254148157 9.878649795811496 11.69532499335766
Co 13.6011274390268 10.171772458407322 14.214391034220789
Co 9.952507695669514 10.945576892688413 15.88351934438642
Co 8.24137662356409 8.573486054568365 10.61039632471783
Co 8.681668306798093 7.043714990912075 8.802863080281579
Co 8.096556039607467 9.950280706412437 12.427178854168792
Co 11.731179126723037 6.246982106796114 9.773466497161316
Co 11.446482324220202 6.697542361710737 12.089656748385568
Co 8.215761108032046 11.48710246355538 14.366802155726226
Co 9.691525916294676 9.6379205345153 14.03917806157498
Co 9.982777486358888 5.221107478346567 8.671355133907005
Co 9.555878163291517 6.114726938098251 10.773421916404992
Co 11.859334119504965 8.826775668379229 13.355854054277696
Co 9.586599401996258 7.906056047251853 12.491538472538098
