5
Energy = -20.80262817 eV
Co 9.54734798789968 9.192689190328498 8.392644168066518
Co 7.930069696040263 9.632824206708749 10.112804394317086
Co 8.77854573867824 11.236456128319405 10.981482169637376
Co 10.404226917575757 9.721455761957959 10.184279650554982
Co 11.188618366778197 8.092693473219178 8.205662264022454
