5
Energy = -17.8003312 eV
Co 10.926138201120777 10.727633024293969 15.540012440731802
Co 12.559053168824956 10.418509581963638 7.328140337558335
Co 11.122305043957587 12.581014723709826 14.50866761428892
Co 11.034017337743066 10.76082848438534 6.174037149442196
Co 10.002284208579661 10.890725150960876 13.60678573702138
