6
Energy = -27.96470722 eV
Co 8.44105832921531 8.874348615684491 7.564101264301744
Co 8.939451158852798 6.887225451616168 8.089871766580808
Co 7.727205339274382 6.098275000749108 6.3590088585186955
Co 6.730437594420196 8.031903785323134 6.314107496842273
Co 6.707524276582579 6.490334310824615 8.306720482406426
Co 6.361717768480235 8.63553340771102 8.421333981323624
