6
Energy = -26.81156946 eV
Co 9.311632409483833 7.2723060324556235 10.289358051251673
Co 8.83559816435764 8.473965088922604 8.563057786124187
Co 9.842842120385045 11.470254755003758 11.031293290108664
Co 9.82706197917555 9.394074695219953 10.424310048862434
Co 9.349273697566638 10.7252476164966 8.656605204319543
Co 11.299866585324631 11.120628853276354 9.51498127233916
