6
Energy = -29.09912917 eV
Co 7.9224917879395615 7.319589782149974 6.489843058508833
Co 8.180568082282726 9.402884197318286 7.359011184614064
Co 9.543667508594526 7.71708323006077 8.023516399942842
Co 7.729787299596331 6.472853010501613 8.58822395222428
Co 6.369160229340157 8.159039643164355 7.910760332287627
Co 7.986282835370689 8.552979304899006 9.452918541060818
