6
Energy = -27.42009103 eV
Co 8.65361353953103 6.254580215515294 7.7250015415756526
Co 8.59010227092687 8.246561512587185 8.645477432987303
Co 7.798577600857922 7.838766533739741 6.435643755647085
Co 6.603757792201417 8.894024429036257 8.050084517536465
Co 6.926714679047969 5.623477676737017 6.530581902416757
Co 5.630738989269213 7.346094504218929 6.816715721670786
