6
Energy = -27.9614816 eV
Co 7.777818030886771 9.052382441208891 8.919061886790203
Co 8.952682133423535 7.187560613437442 8.761778860575825
Co 6.769837397986071 6.908647639244918 8.837680653217443
Co 8.849523504728923 7.3492826360260235 6.607834754580261
Co 6.682243377979913 6.993003182397424 6.716145754843356
Co 7.615937873162184 9.170939263691023 6.8090626482223655
