6
Energy = -29.09931068 eV
Co 9.219287001191288 9.30118119045707 8.152373642755318
Co 7.035644441166169 6.953682541254155 8.103377323681729
Co 9.300504304276789 7.033519143093682 8.152433908239543
Co 8.164149053159838 8.12914390035806 6.52360349186595
Co 6.952010023562996 9.218897694610263 8.100398794197023
Co 8.09272602926664 8.128355204203741 9.730695136642927
