6
Energy = -27.18347646 eV
Co 9.019044359195538 7.367445474084853 7.468465020829801
Co 7.619193968984439 6.410512692408584 6.077577281551328
Co 8.066215369116247 7.760947710996264 9.570417244503403
Co 6.762352911126968 7.701009533103376 7.623562223661774
Co 7.107820224954885 9.559429067060819 8.696150356453911
Co 9.416862500040613 9.204428426172049 8.569991865672073
