7
Energy = -34.21120254 eV
Co 8.499099978754964 9.469328080447019 8.40032646480612
Co 8.043056885500599 7.392649541523584 9.176010572237676
Co 6.520448282889002 8.444670729303837 7.851120274491143
Co 7.665750601099298 6.685051329495059 6.9771981139595365
Co 8.126408180346141 8.781208177446048 6.25158484809639
Co 6.1198202306026275 6.283196144278877 8.618648304609692
Co 9.642594131735386 7.673793865669941 7.56115512434719
