7
Energy = -33.00547592 eV
Co 9.536684663517743 6.558441654660256 8.943649654629635
Co 7.704935089095434 7.882276936303259 8.755336550074968
Co 9.409442137247758 7.91127547773168 7.179811757114486
Co 9.517567148708949 8.393386458880352 10.151408753480338
Co 9.210546771389012 9.708690889721339 8.402284729399097
Co 5.721426161933463 8.63059222943354 8.18369723116757
Co 7.391983105662151 9.258532218162319 6.96876086633797
