7
Energy = -33.91765946 eV
Co 10.4848617896027 10.40382014219945 10.734123184774957
Co 11.385480583222252 9.459779404361333 8.86958356242611
Co 9.847685311470327 8.299448979239557 10.05818239471827
Co 9.935108726970542 11.23676587046414 8.69494528955463
Co 9.304504466269893 9.165577910221133 8.009190350744952
Co 8.369890979662703 10.099038813670273 9.876093507182967
Co 7.766555172095761 8.176421648619817 10.732128086557031
