7
Energy = -31.30331144 eV
Co 9.78394282060115 8.024429566755295 10.552814340485039
Co 8.6945013 10.011076498368741 10.53640236449951
Co 7.605059779398855 8.024429566755295 10.552814340485039
Co 7.605059779398855 9.364573033244707 6.836188259514964
Co 8.6945013 8.6945013 8.6945013
Co 9.78394282060115 9.364573033244707 6.836188259514964
Co 8.6945013 7.3779261016312585 6.852600235500492
