7
Energy = -33.78808659 eV
Co 7.145952654923714 5.668205260176664 7.246240198341683
Co 5.563621851739997 6.582503281835964 5.910343844989873
Co 7.634698173005486 7.313707345537904 5.668795617366236
Co 8.681486908951918 7.310231605310743 7.8376636724345135
Co 6.325699831024635 7.848834257982089 7.648613193682378
Co 7.217819907926146 6.573460336333863 9.322479681926271
Co 7.919423843558922 9.191761083953718 6.85456696238999
