8
Energy = -39.43403598 eV
Co 7.8370278208401905 8.921484876225671 7.215387552494173
Co 8.78785788226121 7.237784875645084 8.50659712407107
Co 8.314601814280401 7.254740475681089 10.697491011118894
Co 10.201076208899526 8.298065798761185 10.105039538663252
Co 9.965086912476554 9.210886885193542 7.929616043121715
Co 8.449809906890243 11.00042307249088 8.074908113319955
Co 8.161280811816093 9.243674774329207 9.487689882609653
Co 10.033758845303012 10.583439140289546 9.733770734601684
