8
Energy = -39.42825412 eV
Co 6.095869916586411 8.901348366229339 5.624794700933592
Co 7.948564159605448 7.652185919440632 5.609589407752265
Co 7.616930782800965 5.6644304255275975 6.877203400054878
Co 5.85415006203908 6.619640575313575 5.659715086238189
Co 6.602795538546591 7.733848587810634 7.534443965407971
Co 5.5386058214491705 5.680381061757137 7.773409557174021
Co 8.889124246486913 7.3497476193170534 7.713677863683131
Co 7.362263610991631 6.306721583110119 9.115470157262296
