8
Energy = -39.74984522 eV
Co 8.525899118237982 10.130016968832804 11.472697838505587
Co 11.287315575042829 9.608120761689024 9.835930471134189
Co 12.101634817653292 11.690256457194792 10.176010851404467
Co 10.799948191049552 10.304860624114504 11.94097909414129
Co 10.875853828945035 11.195707964937858 8.272245774591717
Co 9.846224329338622 11.501344952063972 10.265601471602704
Co 9.87594825297418 8.353521645131506 11.065679094086246
Co 9.08695336977128 9.605774672832448 9.272988878131136
