8
Energy = -39.52607526 eV
Co 8.417805800249162 11.358958818956799 8.753806683758889
Co 9.084641506921063 10.392242458975936 10.679341697826
Co 10.660771081542757 11.061963864049394 9.097873663719616
Co 11.351755882671897 9.997206761914864 11.084985844959302
Co 11.582653483534392 8.982932622336836 9.107448472422249
Co 9.309468065720516 9.257470992704889 8.641050362313866
Co 7.745924082810646 8.623688731054104 10.134619163632312
Co 9.950461542871079 8.259444622331127 10.64916219054652
