8
Energy = -39.11685532 eV
Co 6.847454592547421 8.442090101998485 7.68627071194358
Co 8.571089793252677 9.958087732325428 7.98086840749257
Co 7.745521914045941 9.577082950952992 5.919773524660608
Co 7.682147832590372 8.794197818395352 9.77336145929055
Co 9.867033095159156 8.252359089666227 9.023659648852774
Co 8.14429595663725 6.745164394187196 8.72413563206676
Co 9.025107199370275 7.917312870214571 6.929326576629021
Co 8.950799674979597 7.14715510084244 10.796054097646833
