8
Energy = -39.52674197 eV
Co 6.460368598994533 8.924007286402839 8.748250687968198
Co 8.201917396205648 7.512778192796742 8.63551968629675
Co 6.072614304718207 6.929997418795392 7.72393074968547
Co 7.260004852896473 8.667706608317925 6.65126085229957
Co 7.551980975198782 5.3821909682203435 8.525021066905639
Co 9.44350154728604 8.16054035366883 6.879314037928642
Co 6.141271317206061 7.1472323707549075 5.444784696756658
Co 8.014705361841214 6.42191115538998 6.538282576506035
