8
Energy = -37.65690706 eV
Co 8.581213027464775 9.93084783042633 8.64239439970269
Co 10.79239590627607 10.819181800070181 8.605783374632848
Co 12.1065975211828 9.468004784255452 7.4854653047327675
Co 10.4484163654162 8.554541437344447 8.64278449152085
Co 9.987862375020793 9.776122341850206 10.532725746081281
Co 8.436964916880276 8.066895597053076 9.85718357451735
Co 7.704036609543677 9.981891371635308 10.857261355335325
Co 9.082335449488616 10.462704825227286 12.449126217802407
