8
Energy = -38.67591527 eV
Co 8.690941493464178 7.667704024170198 7.3594997258133885
Co 8.713930238915962 6.492749302870691 9.435019887882584
Co 10.527688762344368 7.628067355603097 8.692037641975597
Co 6.945731510974669 7.823293481431035 8.826769310816879
Co 10.101628814651939 9.57839728652105 7.625497688863664
Co 5.6802071057767325 9.490994928500037 8.167598706165013
Co 8.83908496937074 8.878985669127 9.517301581324716
Co 7.807094866055268 9.746115713331184 7.682583218712443
