9
Energy = -45.00535137 eV
Co 10.107554630850911 7.695031462929762 10.155445973138267
Co 8.069887883898145 7.181900011906269 9.25904831235762
Co 8.308770122160977 9.210284746794073 10.432158169108448
Co 9.952853260165915 6.745524200621296 8.017745855692363
Co 9.365888161880891 8.933361172880074 8.363086560785462
Co 8.36215865959226 10.940279226061417 8.806851004413883
Co 8.023977235556913 7.622399828657496 6.961696756320653
Co 7.019698824118491 9.110315198618077 8.479874487937542
Co 8.16636700079713 9.96380347481586 6.6873884679051985
