9
Energy = -45.05451892 eV
Co 7.5847168329595105 8.904076065817826 8.905940171496624
Co 9.569551761327117 9.418207974758841 9.909594907556496
Co 8.253495691410691 7.738117180507742 10.790002602300335
Co 8.239276300442421 10.079886165807471 7.024124166386214
Co 9.552605387530042 8.378567903816913 7.880860685891001
Co 10.219941360084464 10.595098697279125 8.028289052482462
Co 10.217277064312077 7.203462920938479 9.763822102864323
Co 8.250650404633955 11.114342109736665 9.05683649472514
Co 8.235286786760462 6.691042839180759 8.763331226836664
