9
Energy = -44.92849166 eV
Co 7.623054923892099 8.015129090912328 9.99862826589422
Co 8.74537960782878 10.449852327471545 10.075281022860365
Co 10.83352728280148 9.681111183891725 10.631978434028131
Co 10.026749540626561 7.726642065180831 9.834252695045452
Co 9.229364004436588 11.009152296234065 7.692056543447127
Co 8.794614320474992 8.961453687026413 8.39585134774914
Co 10.989114962134327 9.537115956995935 8.365890397398793
Co 8.939876024348333 8.78658472562017 11.599402090523249
Co 10.591238698016697 11.581542399005999 9.380449645366674
