9
Energy = -44.98526308 eV
Co 9.322148247212311 7.4545607521122355 8.451698927779207
Co 8.044568080113066 8.630118159764963 6.944371940968348
Co 9.483446996516086 6.87024825758489 6.2547674815029435
Co 7.963338138463141 9.313078270349031 9.127291247696897
Co 8.481993975635149 5.466715252130484 7.764505885684311
Co 7.032095824793246 7.182529052070956 8.49003986450244
Co 5.793779341508417 9.170817801569543 8.930861388512866
Co 7.2206170149190605 6.599207187509932 6.26372815465111
Co 5.763745153523419 8.418458039591858 6.87846788138616
