9
Energy = -14.85851120 eV
Ag 9.734103931158874 8.349825350478145 6.213275036816335
Ag 10.36520051946157 10.73561902277058 7.5987131321418895
Ag 11.42258866580307 8.89738895504642 11.327567726733935
Ag 10.550605167607635 8.277978316650346 8.821267497366206
Ag 8.6623674643493 11.659645747565724 9.441783977669512
Ag 9.34691137593169 6.63609984206906 10.610680359456406
Ag 7.97293229691315 9.149109185129005 8.176667572607396
Ag 8.788303554908946 9.283913312129537 10.845405019863298
Ag 6.325158251361605 10.18563243703647 10.132202892865806
