24
Energy = -48.69622936 eV
Ag 13.643849124198672 8.781444093732741 12.253683326753595
Ag 12.243839423802214 10.827386620380807 10.82911475523002
Ag 10.828292415109308 12.929118037968466 9.311351397708009
Ag 13.643731530379878 12.872463528210343 12.253295900014882
Ag 10.828515554021884 8.727350752687585 9.311800930530817
Ag 12.196904353948216 6.776069217162781 10.827527958565343
Ag 13.646203770060337 12.873235733361135 9.405723138991936
Ag 13.646340577179187 8.78131831490534 9.404634251996935
Ag 10.826237202334761 12.930180596321827 12.344786057339883
Ag 10.826479801380419 8.725429281401768 12.344347845789123
Ag 12.222783892931474 10.827875015500465 7.9489383329156595
Ag 15.009605786848567 10.82663125775637 10.829606770538648
Ag 9.410764072058752 10.827350510841988 10.825317542801452
Ag 12.218018240891313 10.82726313813096 13.708295852079349
Ag 9.431576775501387 10.827167040628664 13.70349352314168
Ag 8.009048065668592 12.873494914399407 12.248868280650148
Ag 8.00934328885088 8.78011554922357 12.249150873514482
Ag 12.196696177485299 14.878910238617879 10.828140135834031
Ag 9.436148245879066 10.827645161900646 7.946450844378964
Ag 9.457953040460707 14.879059476470866 10.82588167427901
Ag 8.009686010945005 12.872786024769548 9.401875440692715
Ag 6.645155179100669 10.826344760254102 10.826836179137377
Ag 8.009965794068071 8.78127817725953 9.401016473387006
Ag 9.458421721784827 6.775642513223907 10.825422603508164
