42
Energy = -90.60745029 eV
Ag 9.857624909092294 12.815641429534045 7.255279462392514
Ag 9.454257502154078 9.989863372898755 7.643075151075931
Ag 12.208785578860985 14.07192755899898 8.139243265698028
Ag 9.60714518694177 14.498686472700946 9.511579712607467
Ag 11.482311430251853 16.566241132662746 9.283739745339926
Ag 11.796675210754795 11.276505707331914 8.583740168587195
Ag 9.184821264640766 11.728122676881974 9.829081755862795
Ag 11.33560237335818 8.519291894236035 9.174523619403299
Ag 8.791198914178016 8.986741438778248 10.20361386877949
Ag 14.2798501497187 12.551483508784827 9.383246456740148
Ag 11.727430269935534 13.173380630465106 10.829977416955854
Ag 13.855566372098998 15.280144106954243 10.058676245335427
Ag 9.038167039271517 13.402405484282815 12.093138186872169
Ag 10.542348325190257 15.736676905708 11.859737029002611
Ag 12.784844974677293 17.45173771516243 11.641307654679718
Ag 13.718360064917157 9.871241099452837 10.030968219687953
Ag 11.25595003032367 10.462107019037616 11.459564347561669
Ag 8.433416884941288 10.67534381821034 12.37760934898399
Ag 9.98637363426138 6.6242978655614415 10.969340000212602
Ag 7.697954366003774 7.64950128280869 12.388947703808245
Ag 16.20942363674279 10.984346509317312 10.839213532976489
Ag 10.194789138973078 8.422425064563143 13.204592520236899
Ag 15.70568353304186 13.75263030567417 11.543109610220379
Ag 9.914741343158125 14.75856841082475 14.537517167955912
Ag 12.473694476720688 7.806018930278643 11.612943507668344
Ag 15.230818999128623 16.39008090689146 12.329331576401959
Ag 11.38554750492664 12.444270433053465 13.630910747219698
Ag 15.003832801320316 8.795293437343863 12.249668837005903
Ag 13.800402714821773 11.736008541820983 12.26198359574993
Ag 8.57491120404513 12.24681220423711 14.616716351345433
Ag 17.190553920255024 12.141169383088583 13.233736224209656
Ag 13.133737145060298 14.649638904636632 12.795255191822845
Ag 7.9644973371817365 9.283031915350973 14.70328320411181
Ag 12.764280296336938 9.521858877279167 13.825331610352894
Ag 11.86516880328165 16.740411840270397 14.168346067449479
Ag 10.561249579962817 12.833916787441364 16.508525012714195
Ag 15.37647395849139 10.417499551113412 14.51200595922477
Ag 17.582553348269734 9.452617520188758 12.840107070780517
Ag 12.61027490341433 14.394158745345571 15.55236168329368
Ag 14.930344988824883 13.240357619337557 14.43007305689036
Ag 10.527917992407813 10.259767359529446 15.308885552036992
Ag 13.073093983360126 11.537397178297057 15.777784429244203
