29
Energy = -60.45396369 eV
Ag 11.537586609361794 12.122138360227483 7.89942708816073
Ag 11.928625541753336 9.428869290959774 8.17674196047739
Ag 9.305946420344027 10.49698257279237 7.795565657349657
Ag 9.337709035733702 12.982361211402125 9.37699564638083
Ag 13.755097984729703 11.440265552910965 9.434179246808753
Ag 11.925298170810933 13.740489367193195 10.097554852013662
Ag 7.060597801308175 8.78645522865206 8.103588381976023
Ag 12.361121899772812 6.6543890593404065 8.552754792362336
Ag 9.703237174883808 7.65043627692618 8.169106513640862
Ag 7.003983516059111 11.3769606976231 9.357084353958683
Ag 14.391409729451969 8.6676673557992 9.130536994927642
Ag 7.142226239986588 13.85886277577222 10.822868674075453
Ag 11.097641382855517 10.954633549247474 10.638286799043955
Ag 14.640182400950414 14.10858969253454 10.422752022705465
Ag 8.678503430891155 9.280165422431189 10.228853372468482
Ag 9.746171777408641 15.069416999596434 11.314515560066509
Ag 11.129893685831291 7.922757486424361 10.641959783746838
Ag 8.422761418740949 11.6168068872042 11.82390945249232
Ag 13.625935253416307 6.805349698411319 11.116293425913897
Ag 12.64690126438247 15.157929774444863 12.344833771325359
Ag 13.593093800220794 9.587019053115624 11.600205618304035
Ag 13.450628360487046 12.379803826656815 12.122101237602928
Ag 10.844534591405994 13.109222295460087 12.869637318336418
Ag 9.7658152286028 9.277395392329277 12.724718256090496
Ag 8.197920462162678 13.85109509888112 13.453640166052876
Ag 11.994431056912568 10.670660237031163 13.677793719296133
Ag 12.13268097912197 7.799834153851578 13.279667918205407
Ag 9.303518718280358 11.437678665849987 14.499064033335522
Ag 10.552725766472639 9.019073616144675 15.348633787605623
