43
Energy = -92.41981149 eV
Ag 14.597742544399818 15.136273570288699 9.776752487785425
Ag 11.81990867517132 15.637735312349161 10.420978620550159
Ag 13.764109781995325 15.81245080570832 12.355151163829605
Ag 13.039683565499324 16.693692160083135 14.862351508925011
Ag 12.698316624782876 13.229761340459362 9.185260933255261
Ag 15.340732630080069 13.508179591171798 11.952434506069288
Ag 9.629571037039133 17.0384472236427 9.305245908031203
Ag 15.322953774727953 12.295286844176529 9.37037337416051
Ag 14.842975720074223 14.522534527356223 14.603619553200582
Ag 14.146299656577327 15.409205746421684 17.163129309498636
Ag 9.153121434316624 14.776943843963775 10.857073546469868
Ag 10.337132576030307 14.61903480943998 8.27293938694779
Ag 13.990613327743025 12.307871890528244 6.847550424353039
Ag 10.975520737701073 15.374808066471406 13.176415099153438
Ag 10.902090608057154 12.594246500596352 11.210158741229959
Ag 14.951530889862301 11.655702503962234 14.050275232730174
Ag 16.259874730360092 10.808881542172816 11.668320984360301
Ag 12.070814269262952 14.245123236991297 15.710281689620182
Ag 11.118864454487554 12.250794636537885 7.118569587273997
Ag 14.30325032473449 12.623700347913749 16.63298709680947
Ag 12.741327845614181 13.163186522033941 13.191168380235293
Ag 13.521028881242643 11.25215590041772 11.292757001060831
Ag 12.045178158803191 11.40961256393801 15.558172100212488
Ag 10.081531239257911 12.85939376514285 14.184632639172857
Ag 12.320809316962624 10.051827697156858 6.058952942684775
Ag 8.139663199522136 14.647717585757112 13.469292209824063
Ag 15.17347508482842 8.927041845801948 13.42020725558138
Ag 11.488679785235062 10.471764177753297 12.97115156702896
Ag 9.103421212928824 12.252899722520173 9.127065358768704
Ag 14.56831441744891 8.70952107198053 10.684568898464043
Ag 14.273837456486921 9.767388100729935 15.973178722704079
Ag 13.296632340896553 10.31470648088933 8.644122255894613
Ag 8.097912714199673 12.339354516924718 11.82934842410516
Ag 10.505761473004785 9.78977751766185 8.255874307580374
Ag 9.483677005982658 10.163504208976233 14.917532709306911
Ag 7.399884536821013 12.095369192919478 14.52219174182869
Ag 14.110335047719582 7.038600899774528 15.153216489633989
Ag 9.284465899863513 10.021913611355972 10.80078990040753
Ag 11.775727795932024 8.90797224572672 10.580119588406502
Ag 12.829385348434938 7.580374625305022 12.736883239706893
Ag 9.966365701275151 8.152896349866914 12.858011059595157
Ag 7.554235575651456 9.770544538333116 12.951576356702661
Ag 11.803208063172853 8.605204683751822 15.11647950276645
