14
Energy = -94.38304207 eV
Ru 14.665018097511885 12.847868101762302 13.666909475176107
Ru 9.795058004347876 8.51676698348275 10.683043653433037
Ru 13.317246633286517 11.194836560723337 11.082147791728843
Ru 11.544141873623401 9.85404719843878 12.24278568281705
Ru 10.469041869868596 12.035312848411962 12.920522820600054
Ru 14.42935133298503 13.369215283994706 11.472513649485649
Ru 9.06091078866523 10.186398629808696 12.172350382959296
Ru 12.724644322894676 11.692288412521043 13.50270322351207
Ru 7.654231270473591 10.124477811810342 10.214522548720607
Ru 11.939200463911142 9.437775315113656 9.836252007107612
Ru 11.54244531824093 11.852175267032385 9.572499270113642
Ru 9.729717737270038 10.181637244447698 8.95330016040538
Ru 11.984824883735632 13.207220972555975 11.443754424707235
Ru 9.307307634491343 11.922504398500763 10.585308844729697
