10
Energy = -67.99117244 eV
Ru 7.570066484257763 6.920838944144683 7.598931543061434
Ru 9.903953093374911 6.920984063720198 7.599076212244475
Ru 7.505343600332919 9.239234286441452 7.623355430500448
Ru 9.967938954723499 9.239272505906076 7.623414434689368
Ru 8.736380483414894 11.364501182819776 7.628721338512203
Ru 7.5699785734079885 6.920819658996254 9.87449178151714
Ru 9.903850232436888 6.920557679062613 9.874675097796395
Ru 7.505685332752944 9.239164361529262 9.85045603498094
Ru 9.968239973089732 9.238992889271904 9.850499650026377
Ru 8.737298272208456 11.364369428107782 9.845113476671349
