15
Energy = -103.86636556 eV
Ru 11.887902719991624 10.341948678758948 11.470788861949924
Ru 11.454933228749807 8.327776609098258 10.224839497194997
Ru 11.008030684248034 10.450053774570694 9.06707722413818
Ru 11.471691357794839 6.511320532121829 8.555479477703312
Ru 10.4030073702724 10.686961332337956 6.812986417529299
Ru 9.762685693019538 11.355654605016753 10.99263444546012
Ru 10.324803548464075 8.387599285207587 7.914879260606128
Ru 9.395153165085148 6.984956189402972 9.935608415080251
Ru 9.396958840024238 8.95706404842369 11.437299351367615
Ru 8.107856496258604 8.85860060151049 8.988755690146649
Ru 7.4862896223915465 10.401076396399462 10.80287828222556
Ru 8.726143617680556 11.259120527256009 8.64115022903666
Ru 8.26014309739738 9.492281801905099 6.770991460416302
Ru 7.2573848632670765 7.859565318763064 11.018307697629858
Ru 7.95045330166883 12.80149866802336 10.155194475265661
