12
Energy = -80.89697749 eV
Ru 7.747220294076622 11.186300092977092 12.495381658168538
Ru 11.960468953741676 12.434584382979398 10.051494993337634
Ru 11.711707201888876 10.138846179519094 9.244357520760566
Ru 9.754805638095613 12.47752590251552 11.167805981569101
Ru 12.177631110002423 9.22389438456453 12.457893873990804
Ru 9.977033294489908 10.51687126907624 12.575920547698018
Ru 9.616826995050248 9.07757488035537 8.490115108347625
Ru 11.984224918504525 11.81228207889493 12.392690822645747
Ru 9.853909768853605 11.551456476903118 8.820204777229435
Ru 10.47333162079119 8.89527168082185 10.801759238881182
Ru 8.564405765800833 10.38704715345681 10.455278448511272
Ru 13.459733191421057 10.449968078201172 10.8481013242547
