11
Energy = -74.32671393 eV
Ru 7.721514480539077 7.632581373756419 10.935848789225135
Ru 7.443734200434924 10.439487206227914 9.18789813583272
Ru 9.280798312568027 11.119172830363205 7.5776245776764295
Ru 9.3008051138365 9.342630195704873 10.346794676947592
Ru 8.778126505289224 8.715401543760908 8.131187765408113
Ru 11.138061445198916 9.429197473755165 7.61680002640424
Ru 11.586254119952029 10.065862961222326 9.68072001961201
Ru 9.827270783753713 11.667858396724553 9.646497714834611
Ru 8.625274968761538 6.384617818701505 9.208078918001709
Ru 10.59180407282114 7.572679032759393 9.25734739194813
Ru 6.445125996845179 8.369281167023859 9.149971984109047
