11
Energy = -73.81610292 eV
Ru 8.220648737161927 8.053504586629336 7.9066157760838545
Ru 9.648071274657212 8.239380104229726 10.841816951851518
Ru 10.560739246720626 8.066588170920081 8.590256690836942
Ru 8.841461370045538 6.368541516553592 9.53040628265929
Ru 11.937812469309739 9.901486622485955 7.788275007832857
Ru 6.945623741662099 10.10480639366282 7.657720237180987
Ru 9.529658602444183 10.076720070060027 7.582132147759288
Ru 8.295301375386497 10.900270675340305 9.509750631066881
Ru 10.614479396334975 10.218313522621298 9.799839619449754
Ru 8.951600958502041 10.353285438396068 11.782722468246796
Ru 7.483233777785284 8.745733849110636 10.039095187032222
