14
Energy = -95.19272792 eV
Ru 6.7001664700833405 10.608349565649737 8.33080338058579
Ru 9.014137347598172 9.983062813017124 8.048728797865653
Ru 10.731292796290147 12.022415312621174 8.194324355886998
Ru 7.031034115500534 8.329482886439855 8.385570776984775
Ru 11.585643715004656 9.963400065864011 7.978973428930216
Ru 8.1383174589156 6.528499125921197 7.342164994525443
Ru 7.892804536698157 9.564737574210605 10.324291959941093
Ru 9.624618405455502 11.371708401761433 10.153084128602096
Ru 8.771040770406165 11.040696976446561 12.274014145454935
Ru 9.984190180032984 7.647398572818357 7.9865176614245
Ru 9.461994960148807 8.86296177788318 12.220326733428106
Ru 10.405889144264306 9.089935897513815 10.11704737382656
Ru 8.598546044101614 7.20773294572015 9.900891417224004
Ru 12.16704097065547 7.869591556867332 8.813785403438334
