14
Energy = -94.52228595 eV
Ru 9.031471702844524 9.54436277574108 11.234248477797944
Ru 11.499280228836055 9.825530349707803 11.802740413712735
Ru 7.938001222392627 7.383052890791348 11.652648935046184
Ru 10.453759161642076 7.585701306347598 11.39241311011129
Ru 6.765197314130266 8.960934834896861 10.07842683233793
Ru 8.80618427397084 7.846737567335325 9.386244351963702
Ru 10.884956995570422 9.33200862888417 9.46945216977231
Ru 8.615116447419394 10.354942933158787 8.836488859489442
Ru 12.560108804876752 11.111462557783467 9.863105681856375
Ru 10.322285440380856 11.648312865968087 10.327715348711113
Ru 10.721561335531971 11.17477533290465 7.823727907143622
Ru 8.452048050408862 10.643396748814327 6.389001973069709
Ru 7.202369551841922 8.74938577085489 7.617839550827731
Ru 9.777528514289642 8.869264569221345 7.1558153881597635
