10
Energy = -65.05267968 eV
Ru 8.290816575361251 11.615529618354604 8.88743503757237
Ru 9.780209739452829 9.55565174613911 9.106137841916535
Ru 7.8073357983723035 10.232156911505962 10.599925040684594
Ru 12.97531115737322 9.636348873281719 12.433933806233203
Ru 9.976325302425671 10.321798721529992 11.44040022996829
Ru 12.152660580509178 9.979702643863039 10.267650890633604
Ru 10.489471205388819 11.825334791685691 9.498899583624562
Ru 12.750351261459803 12.39722468822342 9.705984329318568
Ru 10.960526068936074 9.919363797978416 13.455300459422277
Ru 11.989501915847772 11.814087641182041 11.871265267587352
