11
Energy = -72.73921319 eV
Ru 8.14460593425406 12.269808680220695 11.361210811282191
Ru 10.614124001673794 12.072508230544349 8.682484683824372
Ru 10.254518890603716 10.03971098721837 13.452956744183354
Ru 10.374405580893404 10.918999318640422 10.972523900736226
Ru 13.82198051004486 10.347435826797154 11.034258628353271
Ru 11.853513287290424 8.978755597283111 11.621825888720771
Ru 12.028248786984115 9.943340650960629 9.3649757032658
Ru 12.186462689529982 11.200239838932916 12.618855791652381
Ru 9.82307407600781 13.381779374522324 10.313301703396629
Ru 12.408566995653286 12.173648090870573 10.301987745834625
Ru 9.530056028517384 12.122089261955354 13.131439763381776
