15
Energy = -102.43606258 eV
Ru 12.655124905351782 8.167983114988216 10.257324007791162
Ru 11.38417054939158 9.30689356620355 11.740096885101304
Ru 10.085054189763932 10.528702895898121 10.196051311238072
Ru 8.195729698617129 9.897110697216624 11.759380937179607
Ru 11.089741973401155 9.05802019868506 8.605957568534633
Ru 10.931627311507523 11.449643034510743 8.118532630732645
Ru 9.581644509468106 8.087197094183667 10.505961490131313
Ru 11.08792200347733 6.6414594617640805 9.51084022958915
Ru 7.678727763508738 10.752973169173899 9.532513671513927
Ru 9.012825882141376 10.540843158419408 7.360644948351987
Ru 7.273725658726747 8.405633813879911 9.962404116400164
Ru 8.897268819057484 7.772897968896227 8.154330745700268
Ru 6.929795101775994 11.531844322238245 7.119637856829355
Ru 6.804331134639472 9.297524734068212 7.693641786643211
Ru 6.80962007538319 6.912701185542766 7.888670725559971
