15
Energy = -103.04485807 eV
Ru 11.267549910833916 11.868269155444876 9.406960165005033
Ru 9.01130095876078 10.855862003440075 8.935601457336015
Ru 10.755688462551023 9.89976474515424 13.231788156903358
Ru 6.848241703150509 9.27479849725585 8.395599365714999
Ru 7.644512144598567 9.70502393713329 10.667256181389625
Ru 9.518110886290211 11.116467037189624 11.387241992336742
Ru 8.18288656005914 7.582452933160229 9.59126605001101
Ru 12.619538098303583 8.858446597690524 9.081545130310543
Ru 9.78122520221334 8.58734313926527 11.474359200821638
Ru 11.74687873739543 10.070038321191301 10.863129036248589
Ru 10.223194896317073 8.76965606998981 9.077152830386595
Ru 8.694892988688947 8.563286603028995 7.168398836475796
Ru 8.31506362771738 9.865194139125641 13.10168462912198
Ru 12.04957058282761 10.636018516638964 7.6761737820757965
Ru 9.943587224904672 10.479378008443621 6.686150494124339
