11
Energy = -72.71867695 eV
Ru 11.22180214066921 10.910268559805367 10.862194346371993
Ru 7.948015086786914 10.04369423165452 8.70656159199986
Ru 9.912986251274742 11.69136832570809 8.681805462191814
Ru 12.01965816048078 10.270499459008299 8.73663336523071
Ru 11.35916930714211 8.074289339693314 9.097677015499736
Ru 8.82098284197622 7.822827813314563 9.0114347353698
Ru 9.980537893704478 9.49740009992076 7.485865035704208
Ru 10.116082285436915 8.66013125298822 11.031938807724794
Ru 8.82590433865976 10.736780352552255 10.79732733380787
Ru 7.438600426011267 8.766913487757693 10.834787644927998
Ru 6.532280242209499 7.70488148411331 8.917384391400187
