12
Energy = -80.10745235 eV
Ru 8.216159336966804 9.635609724917472 10.386787925896583
Ru 9.53543102969903 10.685184084553832 12.14649505635236
Ru 12.955524517460875 10.314668069439437 9.120642461137997
Ru 10.49848961856619 12.837170541207419 11.407607874003444
Ru 11.906174808871272 12.227773751463832 8.410014609691135
Ru 12.436203521050041 13.298903662621303 10.338705902183376
Ru 10.139478400964773 11.187385001379774 9.615225227447059
Ru 10.52364827686652 8.869531996610494 10.81282071119824
Ru 8.793123812882575 7.552393526424968 11.638220006860825
Ru 12.070190504765527 10.890862215302509 11.251130809917758
Ru 11.124729002377935 9.032061080031365 8.620671915953665
Ru 7.97197294624657 9.205481350182598 12.925255120512494
