10
Energy = -60.28029205 eV
Ru 15.926234480641094 12.880926448484773 14.008258986770873
Ru 13.632850384973633 12.349557371753765 14.277498860109397
Ru 14.91297013561881 11.451738402605033 12.32342706302531
Ru 16.710408928367674 14.690328120453522 12.454161560809684
Ru 5.321016274114466 12.929391383544631 13.413156283583815
Ru 17.13163240014805 12.540909093520598 11.803625330260685
Ru 14.290705216580841 14.543059501887413 13.277937659342793
Ru 14.888085887888876 13.560841180257524 11.1346405614984
Ru 12.840150666462634 12.873169496574318 12.064060156535648
Ru 4.371209066241261 11.123767749785024 13.541182170537693
