15
Energy = -102.98878591 eV
Ru 8.595387489963892 10.678019066302063 7.119035117435285
Ru 8.734747551254916 11.437888953872976 10.390756097499331
Ru 6.8934239436481715 10.478051171651005 8.812721093280928
Ru 10.8223393964358 10.740117258221293 8.454236774006734
Ru 12.512701623097373 9.433909819394282 7.3679782934383695
Ru 10.21992542035171 8.752943574390391 7.050075140405325
Ru 7.727515407696201 8.316439412692127 7.401594960686625
Ru 7.354229172907225 9.460377575042141 11.188506826390213
Ru 8.955450596993446 9.224937672667146 9.29424663520494
Ru 11.390006858542785 8.396477138866207 9.245181587125352
Ru 7.452208006414721 7.285605898642174 9.82271859713906
Ru 10.821013577100313 10.136996564086544 10.903438176666146
Ru 9.165425876037661 10.287156695112232 12.59484279817082
Ru 9.482121285591202 8.067748027250234 11.38798312725927
Ru 9.443873859579599 6.833540551053737 8.58010168430293
