14
Energy = -95.35344453 eV
Ru 11.570936023800302 14.970408764899151 9.436626718551082
Ru 11.599457951672045 11.51550067056104 11.504040352401026
Ru 12.169923665153556 10.59298343843906 8.195728824391727
Ru 8.21346073034999 9.362545483950486 12.907239482585872
Ru 10.21609140353242 13.506840452044466 10.6538194734657
Ru 10.210497807782321 11.432584315598113 9.404736218569557
Ru 8.95610320661645 9.384342531947558 10.538156873280764
Ru 11.509841413375037 9.384809530226905 10.275798896333397
Ru 10.36564368298315 8.338595117500109 12.222885372470973
Ru 12.308777818016011 12.77177673962235 9.485620921292124
Ru 9.050889588207413 11.41794798442955 11.772031936928345
Ru 13.59462508607018 10.683741102857546 10.20296673892619
Ru 12.652222106705306 9.488050101567868 12.45444408373038
Ru 10.483312537312273 10.33486059584163 13.417599791790952
