14
Energy = -94.50516167 eV
Ru 16.498967691193005 10.206376251865603 10.500365418843186
Ru 10.880930154251928 11.875610854049807 13.510869786591188
Ru 14.470450663745694 10.549066892426103 10.823329469558546
Ru 12.661361249163411 9.963465045258312 12.40611255656063
Ru 13.042968306236357 12.263997864260087 12.139677208281956
Ru 11.870937831713446 14.070359531511569 13.042362917133378
Ru 10.240940228567254 10.38296988542038 11.561755159019466
Ru 9.106827569032852 13.430508331397153 12.86910205204224
Ru 12.6885125533337 11.98454087370701 9.722039302553716
Ru 8.628965219812214 10.99822500416195 13.299674972750893
Ru 12.167732527909523 9.732324100438278 10.06681063200486
Ru 10.300762656343359 11.267574701957297 9.223966123998334
Ru 10.762462909032848 12.732770186641616 11.151818919542823
Ru 8.406622948684658 11.966364353445732 11.030844101271747
