10
Energy = -64.06408854 eV
Ru 6.071275792227494 8.430533519527852 8.111334951577033
Ru 8.293423554363079 7.5396411502750595 8.747023034773099
Ru 7.492061770383844 9.44111610642364 10.041935614953706
Ru 11.716026628208487 7.223551536935136 9.798645406279167
Ru 9.752102372369656 8.57306316260211 10.542172445277988
Ru 11.980465740891319 9.475792314238218 9.944853143746837
Ru 9.696519620738052 10.617025078978891 9.26618770945194
Ru 8.328782231508432 9.522165226612552 7.330857058831166
Ru 10.497385454203977 8.639438942255385 8.143818171817337
Ru 6.331728903662062 10.731399525719281 8.22326201142241
