13
Energy = -86.48850239 eV
Ru 14.337660013021578 7.958004077893648 12.90789638051437
Ru 10.396072726756573 10.481403966701693 9.201969289273325
Ru 12.653742163844083 11.48080118991771 12.722574962810313
Ru 8.069690928029813 11.32933897840458 9.003391202139575
Ru 8.850778674311101 9.960213166688538 10.957530067522004
Ru 12.107953976377116 11.90755901668601 10.370968229328607
Ru 11.36287769672922 9.796468907284957 11.454561771224071
Ru 10.820716399320764 13.217880403477887 11.9552436576571
Ru 10.029826860871749 11.137927382534466 12.948106334814343
Ru 9.96373849394519 12.807220585036545 9.52542200116599
Ru 8.492647730241652 12.277661626843507 11.299730588950816
Ru 13.923177575971597 9.703859777334895 11.721886053164646
Ru 13.003986796503918 9.836388461148495 9.563377105815848
