14
Energy = -96.05847083 eV
Ru 9.570096209072148 8.587771063113244 10.809841427840894
Ru 12.070148362766739 8.456593987171559 10.901662582196124
Ru 7.080905942306388 8.655033606804148 10.762984046022412
Ru 10.94434138070704 10.713883106435926 10.61275076341361
Ru 8.37985911723807 10.80924683527405 10.531550406938127
Ru 9.745077944155193 12.896444744007004 10.44315482059284
Ru 9.434927207334441 6.107048028834539 10.183498505354173
Ru 9.69705619409195 9.867782579687777 8.598161544130315
Ru 12.229396888882698 9.69401449824677 8.790971315149466
Ru 7.12683345609174 9.905665429290124 8.634375256505836
Ru 11.017380975541942 11.983612817688803 8.527922455966305
Ru 8.537900343649738 12.074851264242028 8.449229069352088
Ru 10.881967681699978 7.561863727972839 8.92814896091847
Ru 8.291393583467503 7.6934734547342565 8.833033773868138
