10
Energy = -66.49800582 eV
Ru 8.341397699676138 7.732833571136521 5.6688913677055695
Ru 6.466584665631202 8.930348728854595 6.517884888451622
Ru 6.236536263727342 6.431982454379752 6.181829936258196
Ru 8.711143120878136 9.926802699280929 6.728465909129413
Ru 8.285292797320478 5.648048648895107 7.105042933670104
Ru 6.1610339739099125 4.942291050096019 8.143643265052615
Ru 9.357515909745471 7.8203440697670565 7.820604791597956
Ru 7.4843412107803 9.021391830310103 8.6674105522167
Ru 7.680079756432918 6.558423146022478 9.222751601701663
Ru 5.630991286354503 7.342450485713846 8.298391438672837
