15
Energy = -102.69074072 eV
Ru 9.921690169247952 10.962283144273382 6.260537323688412
Ru 11.900225201844984 8.386560329952882 9.26428738780218
Ru 9.783793252266436 12.057822807345836 8.387778063836318
Ru 10.019345484363503 9.54307757816637 7.984486818289864
Ru 13.424250325026405 9.65936792501477 10.400095482509899
Ru 9.854667235063514 7.214908581355479 8.844876838650187
Ru 11.081170917205572 10.653125391344446 9.954815748261101
Ru 10.330877676684544 12.83766053331688 10.855673351648617
Ru 8.362766086068696 8.87176700287073 9.726375941977292
Ru 10.296437767237423 8.56629103900158 11.18154743614875
Ru 8.469358658617947 11.387160965298134 10.240669333163606
Ru 6.831450240212469 9.977104751824838 11.207875512439681
Ru 11.981130375874368 9.833794251211096 12.190051539694014
Ru 8.874859393214583 10.12521032195789 12.385291737623465
Ru 10.55520906871454 11.605230172488982 12.80454625671119
