12
Energy = -80.82163041 eV
Ru 9.02222123814332 9.817151981692204 8.29602305383497
Ru 11.211968310927345 12.395285556920145 13.983436620553592
Ru 12.332541366246257 11.888797453841935 10.471766179316898
Ru 12.97480763044563 13.223529888219904 12.37501469051023
Ru 11.45720045287288 10.291787824947358 8.4124966801074
Ru 9.032962667490022 9.181858731322315 10.695422198024874
Ru 11.44308912499743 9.558352635542263 10.729906185307556
Ru 10.498392968596502 8.086049207566548 9.018640946348517
Ru 12.624620767106512 10.82488587914313 12.679833367912092
Ru 9.925688603316596 11.338688040602916 9.993522776126934
Ru 10.183829958165198 10.889752138488014 12.45993957982688
Ru 10.621915565135469 13.17998937635367 11.703051212276192
