10
Energy = -65.64491428 eV
Ru 8.97771964972426 11.540127517553055 8.68444431779033
Ru 8.462266275455905 9.636441026505482 7.199748279418463
Ru 10.012022062692125 9.34660958570792 9.07861877333052
Ru 7.922092553100363 7.726089079250812 5.728272723019809
Ru 7.614241887739616 9.669425741955827 9.510152906425274
Ru 7.090408601097654 7.779881457234308 8.04355215317211
Ru 9.48551078109366 7.444244312620503 7.6047010988110495
Ru 11.061362436446307 7.150579855695768 9.47364750763381
Ru 8.658846365899493 7.47887424862747 9.914862632544963
Ru 6.265650455919654 7.78474977366827 10.366538546110208
