15
Energy = -103.15059975 eV
Ru 8.589497648069763 10.361242248488468 8.369292430429484
Ru 8.933604205277776 8.895512276308454 10.449661058522425
Ru 11.46488045757005 8.916072596194487 10.481468034804628
Ru 11.835439922558939 10.387398775733566 8.40932515817907
Ru 6.869899245629885 10.17314938205204 10.06185488937117
Ru 13.515069158384417 10.227698650357858 10.143170518507842
Ru 8.909669779931578 11.387129461052362 10.700839040494596
Ru 11.441082298501433 11.407460301690422 10.732340941508532
Ru 10.197061103780218 12.102197411812503 8.517102903170564
Ru 10.152190470351115 11.147819787537992 12.794505777145387
Ru 10.229290067039397 8.655578020125311 8.170425528253247
Ru 12.421718008679283 9.978455859601057 12.514449335448397
Ru 7.910421234096326 9.94180243278304 12.45866226755194
Ru 10.233887255708332 10.562192370704135 6.523855138922692
Ru 10.174841737663932 8.734843018800893 12.551599384447725
