11
Energy = -73.32289072 eV
Ru 9.702994467196211 8.152013464008215 7.152575162426543
Ru 8.021062543720983 6.71216684615167 7.731205818685902
Ru 10.713530653907261 10.364866067068888 7.189990267005877
Ru 11.568600454855401 8.617905997818726 8.658262261738923
Ru 8.432887438655575 10.019074015417168 8.308680680831854
Ru 6.60316488881543 8.468732463489543 8.0900347575849
Ru 10.527327083087444 10.570703490628878 9.653190917392394
Ru 7.66934217108365 10.203131663613844 10.610182900297891
Ru 6.666477236426104 8.18388737135905 10.332990007779111
Ru 9.638894678960924 9.46061749559765 11.523154620261684
Ru 9.246718410409338 8.037901124846512 9.540732633113508
