13
Energy = -88.28943646 eV
Ru 9.146736812349042 8.610317661311509 8.382869407940365
Ru 11.534772665243255 9.750522872246 7.930621076580589
Ru 11.081678500067936 7.7223578442322784 9.635922916653303
Ru 9.644189665902605 10.814792816644166 8.947845058287507
Ru 11.549161729543748 12.182205604215365 9.631634202202001
Ru 7.5754299001806364 10.128940660341875 9.936697219597807
Ru 9.315716322762224 12.411299140038306 10.770231312016472
Ru 11.754000656092742 9.845127954870332 10.315876603832338
Ru 11.17875078802671 13.867480071367671 11.342681470550867
Ru 8.89080483829635 7.937782387473778 10.746460662324845
Ru 9.370802145880178 10.083967081361935 11.523586629033156
Ru 11.288268400141005 11.519608876602748 12.039884341574327
Ru 11.06123150895608 8.517140962736683 12.187233032848946
