11
Energy = -73.37135358 eV
Ru 7.082701750095068 8.062625784712491 7.476362639405044
Ru 9.494032997588508 8.645480324657568 7.820235567833815
Ru 9.219328825553593 8.133728631209735 10.32097696878086
Ru 7.98910524610209 10.237371148190883 6.605992284952571
Ru 11.047487701790477 9.545712718932547 9.550899790913181
Ru 10.99671456276589 7.077229794194479 8.992989384914159
Ru 8.551361154732685 6.491718400120827 8.649370092243517
Ru 9.16243980389813 10.573865304494568 10.757670272317847
Ru 7.541041183252966 9.896080828799919 9.00245530748806
Ru 9.557657681486905 11.089953422226298 8.367574889335623
Ru 6.814081108371586 7.702185642460799 9.91142483309075
