12
Energy = -80.59775314 eV
Ru 13.014738055763962 9.100406085761653 12.512411511872704
Ru 10.574493389963337 8.746998609695211 12.530722260326053
Ru 12.8658513545637 9.223887053707461 10.056073745068556
Ru 10.48066193912769 8.606276692360405 10.069722875088145
Ru 10.05480484722446 12.627936655034283 10.468628487479185
Ru 12.056115580245054 7.235843032903919 11.269802308497693
Ru 11.007019910950378 10.833431884459868 9.074097216202366
Ru 11.585664029703702 10.7507641771886 11.500333919472785
Ru 8.702883454221196 10.024335466197792 8.734125471679151
Ru 9.346751370181662 12.324320165989274 8.131696321013662
Ru 7.739099276782848 11.960680087017026 9.924475193209123
Ru 9.140752508034947 10.430777536959372 11.123710233120182
