12
Energy = -79.37705839 eV
Ru 8.917838750488498 10.148760139445127 10.878992934748151
Ru 11.074624069130588 9.195662723199993 9.73940701731854
Ru 9.984148012302146 8.003591223741877 11.678911404305383
Ru 9.20323493078931 10.232710049375749 8.33487432147251
Ru 7.344721294152662 8.449603904175948 11.451696241219517
Ru 6.961181348150324 9.71064840752087 9.259528814703712
Ru 8.837572008909671 7.968668239941524 9.543660665192235
Ru 7.241041803632845 10.779965266312345 6.952763055243503
Ru 11.02608167264608 6.8219738207902525 9.509201874925433
Ru 10.353058761395545 8.213671148378214 7.470032258768102
Ru 7.825209776333564 8.426666281582039 7.237525966504628
Ru 9.248109892333325 9.892242485175636 5.898415762172328
