12
Energy = -81.17388374 eV
Ru 6.799698551875046 7.252652131761607 9.531636479423165
Ru 8.769827668807869 7.550485612177161 8.224547702472837
Ru 6.999423953718989 8.33444077599291 6.856586964000488
Ru 9.617205741542822 8.6271249275283 6.286694281602583
Ru 10.606559332467064 10.233019066536869 7.865716927416688
Ru 8.680807722787625 9.87220489093601 9.190676441912936
Ru 7.939363017110597 8.763581615659714 11.161844593655173
Ru 10.50680737853181 9.084301273529217 10.502818001213926
Ru 8.089035392376314 10.490787381290948 6.969028799383365
Ru 6.3512149980416615 9.533160909692834 8.904822721730332
Ru 11.101656100048942 7.901997783475078 8.481276890059117
Ru 9.288594006543331 6.899736866598266 10.45238811254273
