10
Energy = -66.25696298 eV
Ru 7.938209109860245 8.99195149172447 9.121745808350544
Ru 9.098224285054462 11.012395082325884 10.312073054422074
Ru 8.561899665043132 7.389485284164306 11.092794008819546
Ru 7.713591589400067 10.49837795626908 6.993607408466963
Ru 8.457812513522098 8.37188478276285 6.617900584589735
Ru 9.658547721082813 10.871361412488213 8.111852178546117
Ru 9.010907820399883 6.467118328246042 9.062954370367
Ru 7.179126786322511 6.878181599444714 7.779282183856753
Ru 10.116171715518128 8.987467797349364 10.5919513106195
Ru 10.204198766677896 8.47046626522496 8.25452911908015
