13
Energy = -88.50111135 eV
Ru 6.319962934240178 6.593955940355364 8.041798500167129
Ru 9.931744703326638 8.259429239273036 10.69197237522703
Ru 5.734721583686047 8.315587773469451 9.652367339782073
Ru 7.83314814977386 7.245770811759621 10.133190726855458
Ru 7.828240904721937 9.647369079350735 10.308630035289813
Ru 7.648820272064361 8.785896254208028 8.033080658903017
Ru 7.673883282160465 9.844420047169526 5.638068988108374
Ru 9.778316019061714 9.795983300938888 8.791889259168984
Ru 9.716878574150652 7.286801853534417 8.445409123365366
Ru 8.386020297645654 5.646006949432903 7.431297298294105
Ru 6.3709882308300125 7.899056356548966 6.079525817125017
Ru 8.345044901745053 6.843520935142312 5.482939677015533
Ru 9.549386324267411 8.644177619057212 6.346831187223134
