14
Energy = -95.62172835 eV
Ru 8.88744971795467 8.979137673261375 7.640426758411137
Ru 10.786183936582907 10.64192958719109 7.482888119187446
Ru 8.754515289626246 11.284809616074046 8.559129277801146
Ru 10.805726936250636 12.602306715170876 9.086906295176114
Ru 11.011703730873586 8.779995134046521 8.944267409018613
Ru 9.058272939202299 9.498580306012009 10.082260238406338
Ru 12.229079289847876 10.777678772606432 9.783027565244021
Ru 11.647193217198186 12.69541513029091 11.367529928299176
Ru 11.265035001762975 9.145493592501532 11.405717233177041
Ru 9.438400833965096 11.770655677004724 11.033026910669673
Ru 12.633661479899436 10.768576761834739 12.47809501016075
Ru 9.332429763082297 9.888299533064286 12.594762646900215
Ru 10.651163818954581 11.711258851704404 13.457698113751885
Ru 11.324763993054244 9.281442597491534 13.909844442051055
