11
Energy = -73.22361822 eV
Ru 10.455789973581881 10.036804386962057 8.573044274796292
Ru 11.834146331635058 10.004905313075474 10.697557486575928
Ru 7.293737196946728 8.856779462798618 7.9781920887587745
Ru 8.203152136715644 10.985563735664083 8.593385756641172
Ru 8.45805160974089 7.449513504342014 9.912802429698388
Ru 9.5201567567027 7.94798903439178 7.714134715321572
Ru 10.898119793935193 7.9418855140463664 9.753721785552155
Ru 9.819580942127022 8.844583497165154 11.722705964538001
Ru 9.595333542725568 10.979982424018493 10.658897445754526
Ru 7.547464448663992 9.56321165115349 10.534318038792376
Ru 9.006078916240513 10.020392976382983 6.492851364555617
