10
Energy = -65.90063939 eV
Ru 6.8988745356211485 7.301941094805746 9.699374273971573
Ru 8.080420076497493 8.428838713513358 6.816794730467891
Ru 9.049926385948002 8.640560236358304 9.933928410059725
Ru 8.721815244580181 6.9045560649570525 8.286794126801029
Ru 11.21681357876912 8.821272575484624 10.606587458257632
Ru 10.981803646815766 7.964926459790066 8.41524074707054
Ru 5.928637562271661 8.45562062401196 7.864790479843399
Ru 6.507713812437519 9.990969499381023 9.414788076052597
Ru 10.330659354737861 9.50372938109521 6.931281159958761
Ru 8.587068729075016 10.228465617999491 8.388606540121257
