14
Energy = -94.98967087 eV
Ru 10.872805624739103 8.509430600406466 8.881509457617762
Ru 9.512611464019002 10.58845548330041 7.818694417714378
Ru 8.551443705267916 8.870366330856458 9.444618226612079
Ru 11.534871157134802 10.785523890901791 9.078022466960666
Ru 7.783011223529919 7.3083752209031125 11.012098468569599
Ru 12.465478289068487 9.273386305806335 10.878366661725536
Ru 10.103059224021209 7.992609337642079 11.106882557710565
Ru 8.26575585668289 9.706391903505018 11.777523405223812
Ru 12.737673171984591 11.49158349153384 11.817594298066496
Ru 8.37374195941453 11.29416211207602 9.87952636448115
Ru 10.623114061509893 9.987412247208852 12.324677758332383
Ru 10.184246115660448 12.85823663369157 8.695853638248467
Ru 10.399106668562684 11.895440806026185 10.95815616679445
Ru 12.400240529705469 12.918326352237292 9.967158636512648
