14
Energy = -95.47879597 eV
Ru 11.845251460691971 7.38061019233536 9.404402327663037
Ru 11.724319174373031 9.104176532703846 10.911867210458905
Ru 10.342344010733632 7.3668946798229165 7.286433182928131
Ru 11.317325602676036 9.449556073579169 8.288367826262007
Ru 9.792523252742036 8.473297786171132 12.039047458155672
Ru 9.407734726564795 8.089112399538033 9.462378930945397
Ru 9.97482833703318 9.718243868504999 6.380460944384347
Ru 8.068131640449089 8.626693026367738 7.53981833917664
Ru 8.863707420722013 10.592804416752534 12.204492406415513
Ru 9.743509144460461 10.452147581139936 9.847090823161334
Ru 7.609881361339857 9.225681119312835 10.679101001205334
Ru 8.49150224564541 10.9280933557145 7.849981881324209
Ru 6.415898636726546 9.927262412506174 8.76896853489243
Ru 7.616847924928618 11.670649388516484 10.17180804359021
