14
Energy = -96.15456826 eV
Ru 7.667845911030973 7.121310868864125 5.304173953403602
Ru 8.600440730698656 9.391896823720542 5.904890624817976
Ru 6.203733044627779 8.587330617118397 6.455097907461541
Ru 9.981801041022752 7.431627441732547 6.4143705185373525
Ru 5.674007023694474 6.121611737462102 6.552595186622453
Ru 8.056896661360474 5.824931780065733 7.215056658876883
Ru 10.222666892778353 9.62764475758404 7.882266477977279
Ru 7.819215434943945 9.448731355903789 8.197468637089885
Ru 6.569138602653121 7.298167839877599 8.490836387831
Ru 9.172184073337132 7.504374809835958 8.646060005659987
Ru 9.155710073852578 10.53047581422689 9.96211711746252
Ru 7.733759803806178 6.628132763914663 10.569952656766505
Ru 6.918618826277846 9.017744788866905 10.446086297080585
Ru 9.210356183678913 8.452392904589601 10.945401874175749
