13
Energy = -88.7294087 eV
Ru 10.217473016851313 11.151703677089696 8.272341697508553
Ru 11.210260810365662 8.912002850474597 7.64920611453185
Ru 9.290517769883376 13.197654032095931 9.415787319979204
Ru 8.238776753933253 10.957953944917408 9.668993996148677
Ru 8.81250039609217 9.163725863868086 8.121240969162162
Ru 11.66239341855384 9.88119423424937 9.79870499665393
Ru 10.460449834009388 11.87969548573984 10.829341338402683
Ru 10.096251239201443 7.9541052316925445 9.774772664350152
Ru 12.646889796161329 10.997304319085249 11.675750706802535
Ru 7.62059191422256 8.562657705999836 10.18774027645708
Ru 11.601115629383596 8.816153649064363 12.014671861480064
Ru 9.368807583426662 9.653405014066943 11.423772451357868
Ru 10.658605251652585 10.808352504817618 13.079075861009454
