11
Energy = -72.44254441 eV
Ru 11.0305064357149 6.316501134801032 9.908372437198434
Ru 7.255275886329085 7.139986772050185 7.19578783492271
Ru 9.26418951324111 6.989682166582341 8.5043876698128
Ru 9.460795193403461 8.918432069244384 7.148791265683
Ru 10.15005640554269 11.138804953062541 7.448243494947552
Ru 9.688083230616687 8.02830741141444 10.695992470196567
Ru 7.398732583229798 8.105420626208701 9.655770879271419
Ru 7.252680888951054 9.489165613938392 7.708628874393125
Ru 9.94757367688213 10.013711279991242 9.436020417123006
Ru 7.995423856236062 11.280587047653102 8.800002889715033
Ru 7.96558539897095 10.02586832515161 10.91816415178772
