5
Energy = -28.99584148 eV
Ru 7.509006758047512 8.732751328761703 9.465708462941997
Ru 7.963062584410353 8.891386442342965 6.526426761402708
Ru 6.515217961635903 7.533818349393044 7.738533005962487
Ru 8.501444768228623 6.34943686680472 7.981334777834696
Ru 9.467032927677607 8.448372012697568 8.243761991858115
