5
Energy = -23.93484035 eV
Ru 14.226428419045492 11.042905477955895 10.12012449819418
Ru 13.489749778313096 11.756760532403103 12.068113386296522
Ru 12.68973018823338 16.554067673401693 16.5930840730756
Ru 10.353265973676374 16.288716449336643 16.39453738195875
Ru 11.557222579511908 15.013906103670509 17.977556175469882
