5
Energy = -26.47319227 eV
Ru 10.601111797987837 9.019149615317382 8.927289673711329
Ru 9.006369254901559 9.957585383685823 9.960841248355704
Ru 9.153827119233712 12.508048002902243 12.726028433724148
Ru 10.079196512295837 11.352222939484813 11.30725241714387
Ru 11.895250799325826 7.943721603349017 7.860557212433723
