55
Energy = -422.57482902 eV
Ru 11.643028338007626 12.226463895952987 12.49171244986145
Ru 9.907587420874844 13.081196914818152 10.660254159589622
Ru 8.860680757113538 10.770428366983527 15.282431044827659
Ru 8.852451548537973 8.965094202552324 13.568318886620812
Ru 11.02469389972873 9.494747446022268 14.686541925679913
Ru 7.550701127251208 13.80233713707803 10.466810715838868
Ru 13.485239601224476 13.130616907249955 13.987445841497925
Ru 11.547440002087455 14.840750759649742 11.593739936133543
Ru 13.14840757282139 8.075102970658019 14.247755790831823
Ru 15.887403044411684 10.287311865318937 10.739186279397101
Ru 8.886262295334696 10.795290381413746 10.40821787926265
Ru 9.143472801952209 14.460126956893957 12.570077209764397
Ru 7.28073606622266 9.315063897330583 9.043466507894406
Ru 11.342273148208585 14.343987584154643 13.980631467581691
Ru 10.694487296485581 9.909581437287148 12.137136145505284
Ru 10.086038261437169 11.150963029572653 7.918827071536703
Ru 14.255583679725875 8.807740071792104 9.577126185778445
Ru 13.212239103437678 10.531354790283604 13.910475273729935
Ru 9.111966763248724 11.894086700231032 13.033095648691422
Ru 9.698642313085047 15.411086282585806 9.932886504784705
Ru 15.702958123398416 15.365521175783682 10.472443442988626
Ru 13.498351179505448 12.961151095886525 11.03808130695788
Ru 15.997886734347562 14.004742919651271 12.779684164123005
Ru 15.184935357775585 11.769432868349295 12.683820334207777
Ru 7.706683303241514 11.900175625808801 8.433934439214978
Ru 6.56026499111578 11.497186251817194 10.632060652872367
Ru 7.863374390509209 7.416020046281169 7.5225822555508195
Ru 7.205052662650867 7.029663650945721 9.946937676845662
Ru 11.023529406854982 7.566942159490148 12.98501940719764
Ru 10.095423058032015 8.597998476081953 7.86132566352012
Ru 8.210854343946558 9.976451992014967 6.867830487490833
Ru 10.995255583579633 6.529915870603861 10.776465362115978
Ru 15.896138363565763 12.832731808886399 10.527909417185349
Ru 8.685303757658719 6.863147223313948 12.219904793517106
Ru 14.246707258029803 14.049279409774922 8.960433958211093
Ru 11.79486801171964 8.78367929911376 10.0877903757511
Ru 13.317182963386951 10.230181335787252 11.47798477738211
Ru 13.27129225103142 7.726121021989254 11.833652240951988
Ru 11.666160334762385 11.347871468661543 9.897776904418361
Ru 9.646987267061235 6.331096951458341 8.72133741129457
Ru 13.12114172769316 16.02863988012628 10.030867019515162
Ru 12.233351057740123 12.358930934012646 7.5931847442671145
Ru 9.388122923218422 13.60442829767377 8.236018789754313
Ru 6.987293801532679 13.023539268948896 12.683368340311638
Ru 12.501438750777591 9.755344054449946 7.953477822876578
Ru 12.07594652510873 7.1672029323655355 8.29709303914458
Ru 11.069805276517378 11.939415419876255 14.897230206703911
Ru 14.097076203769328 11.370700551834693 9.114318106555169
Ru 15.147070893900935 9.233272585730962 12.995688349678048
Ru 6.973986735064465 10.658628767001948 13.345118173735251
Ru 9.301315578391211 8.33113479125826 10.311672336766566
Ru 9.188787308605196 13.532413765239957 14.90855350551695
Ru 7.275891652215073 9.009674818629314 11.594407113973816
Ru 11.731224465649941 14.093391260428398 9.17120956347297
Ru 13.973765465987993 15.07540317243651 12.159443640664781
