55
Energy = -429.06721964 eV
Ru 13.30937110037348 13.699130281069055 13.115955220070331
Ru 9.081111748889278 9.598995445416584 12.16544775330215
Ru 13.312356784334648 9.611824308029862 15.433995876083836
Ru 8.925138674038463 13.5094253744291 14.464889310200613
Ru 13.52234106365333 12.254183495212269 10.879965328671696
Ru 13.219476105534973 12.275882242267896 15.487138941517284
Ru 13.243830939490703 16.15698484350576 13.187982896907844
Ru 13.325401714187183 14.851632357890342 10.873644198929213
Ru 15.28224387698534 16.1733602137846 14.727458181638152
Ru 13.338835079800898 10.829593680538034 13.135916988734161
Ru 13.375338838136793 9.65173739727278 10.904123152331712
Ru 10.914666468263855 13.51015851802645 16.096160903831713
Ru 8.950885151587817 10.954368632480197 14.48023647468841
Ru 15.501307404230625 13.552404277557963 10.222143924788046
Ru 8.912235770210991 12.24213226356851 16.659444370273782
Ru 13.319437800023158 8.371769877615305 13.235780720083987
Ru 15.524367150240117 10.984517689023383 10.236879654920884
Ru 15.335574903284838 10.897975433514949 14.808134034141093
Ru 10.932625387514632 12.246413394972075 13.842370399770305
Ru 9.132191167966043 13.622638420322081 9.918798765191076
Ru 15.364107432876805 8.414847996266984 14.772739934926332
Ru 11.073733024353086 14.83503794137123 13.822491932328589
Ru 9.160257087615028 10.793607113962981 9.936201239603342
Ru 13.254196493588113 14.94530996218886 15.399741766994966
Ru 11.12573167853275 9.66100108314594 13.85273345813922
Ru 11.279168308051931 12.22711929842829 9.195349493562604
Ru 15.303590487560266 13.691783166577016 14.793463381074087
Ru 15.418345746476248 12.280905593991763 12.546099460502425
Ru 15.635042133298022 12.257087262798887 8.037601982195614
Ru 9.239595205362274 12.198755302264713 7.799044551104014
Ru 15.387095117883787 14.896632279168154 12.549939394773663
Ru 11.180480667161818 14.900220794726035 9.296456392523355
Ru 9.296310747569512 14.674261983524241 7.613088367036754
Ru 15.437669996878798 9.66424431582521 12.57966582356337
Ru 9.12145454342963 16.10745641313083 9.939737887208008
Ru 9.34202731949086 9.726948513295403 7.641939673320964
Ru 11.11985018269416 13.682976869950743 11.578215233692434
Ru 11.234695165153443 9.554367336267154 9.32779633569517
Ru 11.466220574263922 13.5677057565992 7.124892622244497
Ru 11.139357201686655 16.139961528761155 11.509541253782213
Ru 9.203000025903474 8.309729957975115 9.982668540371558
Ru 11.490567346932298 10.868275904252352 7.140950741650186
Ru 11.147496383749594 10.790304311526466 11.595388008406914
Ru 13.553007615955051 13.480305682550979 8.596520450817483
Ru 13.440343325593147 12.230460393937054 6.399726875084352
Ru 11.212363019414017 8.333735872715646 11.555354867568935
Ru 13.575219327126684 11.00462079941246 8.610202343731785
Ru 15.203191802020811 12.305875651600577 16.94181388815168
Ru 9.040179637194603 12.221357455968919 12.154137568370784
Ru 10.94190655263636 11.006542710232996 16.109275306940145
Ru 15.045255884675248 14.761918847896638 17.103299135490207
Ru 9.032456628051621 14.843404020889729 12.135905594180766
Ru 12.860531857459309 13.583717201506694 17.564003972163544
Ru 15.108077097951776 9.846167434417975 17.12858415873539
Ru 12.899293538178684 10.98878138189124 17.579517553505884
