5
Energy = -28.05433361 eV
Ru 9.237498754823639 7.547711771715893 10.93257216470957
Ru 8.851123355753117 9.27811129741171 6.590108682016351
Ru 8.497844634142373 8.07357369113377 9.128161946620382
Ru 8.001895301939204 7.252065237954458 7.03018548483845
Ru 7.146975228721458 9.57481242660178 8.027182620644716
