5
Energy = -27.26618106 eV
Ru 10.962550586564234 10.776208061734078 9.829438566852359
Ru 9.080145321430575 7.89696045035635 8.288559385492126
Ru 8.9736482551603 9.392454757492375 9.804497550107167
Ru 9.211831140866778 11.639364950431714 8.911973568371572
Ru 7.872320987011873 6.425433810150095 9.239383592914551
