5
Energy = -26.65594349 eV
Ru 12.51186652989822 9.97361405680278 12.225649241119688
Ru 9.41592324686887 10.34911087549944 9.148560880784194
Ru 9.93436917231751 10.040699014478498 7.257788744723706
Ru 8.526725166791321 10.484944333589583 11.16938877045938
Ru 10.727385606219679 10.419820884019213 11.455316844525631
