5
Energy = -28.65194302 eV
Ru 7.379296432087882 7.8463168111114205 7.233788927961177
Ru 7.81972468586115 9.184896712302521 9.259731894071624
Ru 9.600766476337116 7.767912069993087 8.305290859324938
Ru 8.837636203301244 9.71104725729495 7.18722590208982
Ru 7.694858522009393 6.822110010104566 9.346244916552324
