5
Energy = -28.55039482 eV
Ru 7.172211188054026 5.258641466570313 4.619470125526995
Ru 5.625102474627328 7.862528652834059 7.601748176833234
Ru 4.81431418574811 6.2814872779401645 6.137535013037477
Ru 6.315848974426086 4.681545871065846 6.631218694413086
Ru 7.179972930544672 7.0206967634096715 6.11426910788545
