5
Energy = -28.07754717 eV
Ru 7.344277949992202 9.125756057441802 7.201521592913883
Ru 9.180595312520627 7.5223946113224995 7.746251710902361
Ru 6.782018248850485 8.9602357830178 9.319665698552384
Ru 8.386384574494649 6.135610684940235 6.217827697214198
Ru 6.846652947724903 6.795931896860407 8.054662333999785
