5
Energy = -28.3523994 eV
Ru 7.692064805326633 6.528954414826248 6.581766062442982
Ru 9.093783623278053 7.325785188215049 8.098906695965988
Ru 6.1829064221541525 8.14990339269973 7.004777939736955
Ru 9.42585301244953 8.889383678131129 9.701337553453373
Ru 7.473930223498573 9.064669587640811 8.557377308899277
