5
Energy = -27.58872334 eV
Ru 10.647888543916462 8.326731291100927 6.356943093865657
Ru 9.058144135782095 8.836596289401712 7.520039630698409
Ru 7.391595539709821 7.471114259115252 8.546042493355271
Ru 8.828603417983095 8.885578046492355 9.88979333636761
Ru 6.5347352146742805 8.929953083602795 10.105125973950797
