6
Energy = -34.32741756 eV
Ru 9.058610737299693 7.288379776923494 7.661965798864891
Ru 9.019650159296122 6.482846246079766 5.720343825998534
Ru 8.413776669393975 8.529370404496607 10.588346915150884
Ru 7.192940425950552 8.616913615111732 8.343705382534605
Ru 7.600062279465995 10.48006222366134 10.00153885220904
Ru 9.505546158244977 9.402119424214229 8.485563322847902
