6
Energy = -33.33767146 eV
Ru 12.578374120969244 9.63583019692216 11.831461142592588
Ru 9.057958200643391 10.81652402564202 9.855731222386485
Ru 13.468683114787959 11.518532350287675 10.909583550824513
Ru 12.044838740791725 11.582841286473556 12.948251626159575
Ru 7.197177344796249 10.649538963024629 9.018832179872746
Ru 10.87512722760189 11.159185817114043 10.703771996087609
