6
Energy = -35.94594197 eV
Ru 8.699609928669167 10.389924819945778 8.382578060091355
Ru 7.699447284348618 8.698273682157536 7.3401222630204135
Ru 9.069510531135482 7.0410174073424106 6.64278888870415
Ru 8.666139680988223 7.087332276662357 8.869783713251554
Ru 7.53301813646292 9.387862182853883 10.080872034207198
Ru 9.717305457066763 8.683561155296346 10.004400372152078
