6
Energy = -36.94299931 eV
Ru 7.026677949263486 7.476581617039722 9.085695246490783
Ru 9.57427720036364 9.159883862739152 7.520914178540392
Ru 7.422718617420465 8.232136131116189 6.845688657679138
Ru 9.025143290731794 6.801211251914227 7.9134850481778445
Ru 7.606982876666913 9.818116125450898 8.723513861188485
Ru 9.206744065553577 8.374615035700998 9.77324700792336
