7
Energy = -44.26208409 eV
Ru 8.150585550551035 10.813516340559037 7.954420910995106
Ru 8.629871698493709 9.07294929656954 9.762177466610108
Ru 10.316464918756772 10.170873162215345 8.170702909729808
Ru 7.530162261808346 8.596546302232888 7.637881135523511
Ru 9.111942661739192 6.5587828587893755 9.601745378671641
Ru 9.682926303044287 7.966119945694986 7.85229575757581
Ru 6.94139937085096 7.184564859183278 9.38412920613874
