7
Energy = -42.86769558 eV
Ru 8.401766503338326 9.59439191411533 6.728197478226037
Ru 7.160170648386489 9.484849506222673 8.878962462823262
Ru 9.403031353619998 10.540080796385865 8.659633161245
Ru 10.231569062168623 8.487887215206372 7.776095468095121
Ru 9.089154756153162 8.46652511578357 10.004732928816692
Ru 8.003386621317231 7.485580989109793 8.019483635775195
Ru 9.675622157988107 7.968110883249346 11.977863906880907
