7
Energy = -42.22571285 eV
Ru 9.124290756898095 10.182770225502976 9.383280560837733
Ru 10.213891057381822 10.129015488622674 12.369839158050686
Ru 11.327294237069083 9.894603583337874 10.202123882344242
Ru 12.340047738306286 12.080699320339752 11.025781917952896
Ru 12.474469981439778 10.45066691349187 12.48996601971469
Ru 10.003903523427336 11.829219664657312 10.945460566363659
Ru 8.420152922507501 10.193873322152559 7.439572556816035
