7
Energy = -43.26917404 eV
Ru 6.156040883490925 7.319040199018026 5.629173758243464
Ru 5.802975962176402 5.294320406796954 4.278233603598279
Ru 4.057257379818866 6.09777693368979 6.049468498635356
Ru 5.264541756337803 6.961433652021217 7.896987877691866
Ru 7.963387041583889 5.713186182427206 5.156481074432393
Ru 7.716306588465421 6.76268951076202 7.430040537340428
Ru 6.170673778486352 5.01080476379087 6.693741278578006
