7
Energy = -42.4853326 eV
Ru 9.506493349315006 11.967031198909508 11.844552196466047
Ru 11.762613846266778 11.818726671365871 11.23521495177411
Ru 10.040670321040952 9.385798647744123 8.489218426948028
Ru 10.556835462617201 9.730814625649408 11.166338200372342
Ru 10.219510056884655 11.461263948061447 9.362986674304741
Ru 12.111249995971148 9.827390670935168 9.34921083212365
Ru 10.460091173292628 10.488212510694737 13.31893867986259
