7
Energy = -43.98134159 eV
Ru 9.040728815418344 9.490259033325554 9.382221813619312
Ru 8.640681082487244 7.173313245323528 9.998023410376181
Ru 8.197077025615066 6.641787673656338 7.586844928752319
Ru 8.617473541879644 8.969732507205551 7.030322947327856
Ru 7.378159768223408 10.756647069511724 8.132801772249978
Ru 6.967662563934601 8.419943561727644 8.721076496327091
Ru 10.290948274193111 7.68104790924967 8.281439631347144
