8
Energy = -50.22411847 eV
Ru 9.329209019737089 13.090601988542764 9.614936430451662
Ru 9.263376716607372 11.012334239024439 10.963620583159251
Ru 11.066939274484493 11.759021537850183 9.324190710751845
Ru 11.500601862851605 10.07528183186663 11.359813051469516
Ru 12.686812355320768 10.127672621234725 9.293177724341083
Ru 10.17963470117684 9.34848770602722 9.45138810184914
Ru 8.335992847366178 8.982908658467698 11.282974113336925
Ru 10.433102169807903 8.100157597201425 11.584627411321799
