8
Energy = -49.79388249 eV
Ru 12.872106695259474 11.280398030922111 8.218246791090252
Ru 11.192355042307362 10.54166725541374 9.251495551510947
Ru 10.246373627037286 10.197390539219802 11.562806494268514
Ru 10.877689027017652 8.294751191416257 10.229954761328832
Ru 9.454738741822066 8.99592985612614 8.420623704288184
Ru 7.978402826071095 10.875174920139289 11.913044988181587
Ru 8.485122533722627 8.759697004416058 10.692154210001046
Ru 8.733593431472798 10.942065377045296 9.643043166307569
