8
Energy = -51.29866687 eV
Ru 9.635688050339947 8.886126414624561 7.46675570437046
Ru 7.275980328436318 8.747691070336797 7.17411398468054
Ru 7.397159129641842 7.219981932723198 9.064743057513892
Ru 8.530643942831503 6.706923045006388 6.865461231609371
Ru 8.431148444030077 10.70350406286342 8.341653411128467
Ru 9.882615318757832 6.657312151505657 8.819476683068391
Ru 9.146064248818758 8.654081619789334 9.800760516131033
Ru 6.77109246539239 9.494771631399077 9.537427411497367
