8
Energy = -50.37518214 eV
Ru 5.503326701103593 6.698163961728263 6.18174992541771
Ru 6.472768669668217 5.913921168313381 8.312050164676506
Ru 8.73524209240404 4.964272789512803 8.350998275673893
Ru 7.776339927019862 5.637460970272006 6.2510390591133085
Ru 5.2652730881073015 9.03651030383093 5.610647441759175
Ru 6.247775293712187 8.348270216404662 7.766546879537932
Ru 8.542888200607162 7.350822480752911 7.830005484206443
Ru 7.478211607728537 8.072403689535935 5.718788349965416
