8
Energy = -54.53631695 eV
Ru 6.515388769368061 8.114001928440892 6.982046557619232
Ru 8.13521109142681 9.733715523042916 6.980338097008904
Ru 9.732329818062315 8.13658587903858 6.978112426428301
Ru 8.112468634607094 6.516867705973364 6.979748635107896
Ru 6.517872497236855 8.113522843516687 9.27209307804967
Ru 9.734764291066451 8.136249417084976 9.26817139817861
Ru 8.137691745177523 9.733325872722098 9.270396479776709
Ru 8.114985153055114 6.516442830180712 9.269805327830667
