8
Energy = -51.3262352 eV
Ru 7.955739467324156 10.898910062194354 9.93593632752705
Ru 9.270061078398468 10.396970681627568 8.19240018830373
Ru 10.435685633693247 11.861865906379629 10.086358071000646
Ru 9.550749492941415 10.082576924927082 11.417772601890634
Ru 10.90535017257592 9.563114135132343 9.618336868191365
Ru 11.220294907371901 11.45966413537253 12.463312054776603
Ru 12.054542180872302 9.34409591435022 12.040891040007857
Ru 12.744775321383143 10.865791351262052 10.436156184396477
