8
Energy = -50.42417841 eV
Ru 7.892676863455166 10.248888043803635 10.361022016650693
Ru 7.59609944813296 8.71048607236964 8.2980875567693
Ru 8.680719238600961 9.802062273670405 6.545620324801358
Ru 10.581375185880905 8.657265342418121 6.931613964974081
Ru 9.655420924472244 7.661020135462444 8.76049246021676
Ru 7.963679145765822 6.192503483699176 9.323325819718491
Ru 9.627813566892733 10.238237831992695 8.78234162420611
Ru 7.836089953681314 8.000285371295039 10.673824348138483
