8
Energy = -48.28216778 eV
Ru 10.642862262663984 9.430720168397919 8.360069604017294
Ru 10.710989723852277 8.673663712945034 10.660226722794508
Ru 6.415304428052948 9.502989840945435 10.257091868841524
Ru 8.549295689634379 8.892458490329762 9.865320855401707
Ru 6.642111440021385 8.919256625189945 8.024131273260796
Ru 8.84800380136184 8.245467207283285 7.331684352763925
Ru 10.265039941099626 7.103995495674467 8.894773850979421
Ru 6.84559871894388 8.280670227241849 5.950904773631006
