8
Energy = -50.39613331 eV
Ru 9.198834151696685 9.299108473527928 7.262461697077723
Ru 10.820764945754771 9.4785015309669 9.00962458844568
Ru 9.637598943048216 7.457103717466297 8.724877308663062
Ru 9.616147712827887 11.580733898733692 8.273310659165395
Ru 8.43317880771841 6.073452785821844 10.127670548022737
Ru 7.933297082167772 8.323605674217424 10.210941498481107
Ru 7.591923144344896 10.113793714864586 8.662605194055423
Ru 9.205736046897071 10.30031595065503 10.415999627607894
