9
Energy = -59.78535568 eV
Ru 7.5580683734156695 7.685733284406945 7.740982363643474
Ru 9.758328678151985 7.151825995477305 7.890816834332564
Ru 7.6571241051888785 7.972137517193922 10.301411476552762
Ru 9.894281044682254 7.7484795146323595 10.099508504205943
Ru 8.163077044726295 9.702268719856876 6.659332801360452
Ru 7.729213773049512 9.935107882792435 8.956079587913592
Ru 8.27854721349297 10.092482706915888 11.276773445423755
Ru 10.333686534239648 9.249938888641518 7.162546619913362
Ru 10.079623733052552 9.913975990082633 9.364498866654229
