9
Energy = -58.78788161 eV
Ru 8.570768002435251 8.330027904123167 8.0848246452899
Ru 9.999762505669224 10.335366279069348 7.5389276037413016
Ru 7.904294948090589 10.712399167109572 8.571054666168347
Ru 10.953310807799518 8.403720216768926 8.847122431936747
Ru 11.086916849524115 10.808901336396417 9.588260195312177
Ru 9.30251292639831 7.047650196901845 10.038129917937209
Ru 7.8180730431516885 8.964463301273765 10.385990653950731
Ru 8.989779257444997 11.184529528772764 10.622519270715657
Ru 10.198198195670136 9.036558605768263 11.14678715113164
