9
Energy = -59.28797264 eV
Ru 9.750385146773613 10.227761716224116 8.698730610501181
Ru 10.308178902862187 7.836324619318022 8.955633075471232
Ru 6.970075552108692 8.354915594437491 9.16822293240954
Ru 7.969686433046199 9.665558184904787 7.3299499639936485
Ru 8.527766936542996 7.274114828971421 7.586510908467129
Ru 8.449536518797279 6.50970784791292 9.958761837417219
Ru 7.453746991969174 10.778836333706375 9.500997800981533
Ru 8.749604605672557 8.917260019603498 10.537621266548081
Ru 10.234958880951918 8.84946087055899 6.67751160421068
