9
Energy = -58.46604602 eV
Ru 11.08119376345494 7.562495729312816 8.68072418336102
Ru 9.534721560365332 9.521256272339334 8.902554449891833
Ru 9.218355534724594 7.059164471700631 7.460698075828887
Ru 7.562389768757996 11.068340616820871 8.979329606210142
Ru 8.805780645483837 9.013660227471668 6.40403947890721
Ru 7.803128524263597 7.755102582020568 9.258995109097363
Ru 6.949107098039883 9.311291551584901 7.657033461539583
Ru 7.881266867290259 9.700319667855574 10.76374381880516
Ru 9.865222237619438 7.709534880893884 10.594047843477531
