9
Energy = -58.04406951 eV
Ru 10.104886676349768 6.563698193796467 7.75634022830268
Ru 9.458373055731734 9.138768530320505 8.16063278191162
Ru 9.840249686349878 7.322892052702976 10.032007092207646
Ru 8.249393779576835 7.652012554017461 6.802739439929174
Ru 7.869812742002858 8.61686504074505 9.811698259956923
Ru 7.8818162278943795 6.37524077803733 8.847005933892705
Ru 7.581649367626466 9.867174794833181 6.376793593607121
Ru 7.326741888233937 10.613788986716418 8.658216565340547
Ru 6.273828175385422 8.478480626056216 7.9704127997238565
