9
Energy = -56.2886837 eV
Ru 10.49946714288077 9.784169259911135 8.419875764829053
Ru 9.068353382762384 9.210957396043879 6.547893572004025
Ru 9.432907630533089 5.843437770473351 9.414403421140142
Ru 10.49300438861801 10.893742937722553 10.404372378580799
Ru 10.02284163069535 7.502583732972577 7.977488347793908
Ru 8.452589993028022 10.04157642684115 9.767132950394728
Ru 7.933937781598821 7.584258320837668 9.281936327001318
Ru 7.190408075129039 9.3809511202584 7.717292219847337
Ru 6.241807964738661 9.153286617963305 9.90019450030802
