9
Energy = -57.59953458 eV
Ru 8.666084097581384 10.747377864529653 10.736069208185764
Ru 8.694254280157567 11.1932609789027 8.394563968901716
Ru 9.741724520643785 9.981369081750628 6.7804870384075535
Ru 11.066325896986912 11.201597877162172 11.199864410584937
Ru 10.511151708092944 9.911600549348094 9.363762427868572
Ru 8.746359492441421 8.463891116487574 8.142012804621862
Ru 10.29922444356341 9.656614012212927 12.656119139628123
Ru 9.420134660012934 8.453298149648594 10.905560390532537
Ru 10.35669729287465 7.2609514049930555 9.174978218363036
