9
Energy = -57.36972422 eV
Ru 8.896374910519107 8.060179744411682 10.125572665896154
Ru 10.213019907926098 9.845305653353018 9.120909685604094
Ru 11.170200402211858 7.769175091973917 9.24829355230475
Ru 7.42422263474682 10.094859109676351 9.30194552731982
Ru 7.168759015759029 11.240726111905582 7.339160991489092
Ru 9.801944952261866 6.022106666913832 8.60945087986109
Ru 6.483278387226461 8.0374972801682 9.226199335611632
Ru 8.160446557843672 7.41878484377565 7.8047254854659185
Ru 8.780736468667577 9.610779713838484 7.322157465991236
