9
Energy = -57.833293 eV
Ru 9.14437756299386 6.5464386997027395 7.465996734085222
Ru 10.993056972324641 7.9192344815839935 7.740338488645769
Ru 10.674946569926357 9.904037570673697 8.806016210684108
Ru 8.6407325430466 9.069348799672964 7.473008089151601
Ru 9.113440876803244 8.011893898544777 9.578366087528996
Ru 8.349314215358536 10.399580218346864 9.57757449622449
Ru 7.019183768074401 7.370347633539869 8.355114380076442
Ru 6.382168458874155 9.725311641064431 8.29321309846357
Ru 6.859789836663404 8.654957901572292 10.422948355551172
