9
Energy = -58.20966804 eV
Ru 8.577225408389419 10.685643357932335 6.895805552234555
Ru 9.46661743241907 8.593589794254784 7.447381512955472
Ru 11.299359372123899 8.46805095268298 8.932124559439531
Ru 9.940276526934467 6.556961950129789 9.340765456980042
Ru 7.985729058776853 8.399068307769584 9.189231843839071
Ru 9.722400981049999 8.292808207947218 10.866034772844369
Ru 7.0767298454104095 10.504932568806085 8.566654054062319
Ru 9.523573541862003 10.285577769464547 9.287238839133074
Ru 8.160110312616805 10.06667161338071 11.233413131961166
