22
Energy = -43.09478828 eV
Ag 7.729955487496936 8.654381300888971 12.444057786896504
Ag 7.996984596549302 11.426302786635686 12.681130169052942
Ag 8.85453562819305 10.164904732608795 10.389354173865614
Ag 8.986167545053485 9.358210292381244 7.785384958126584
Ag 10.16037938590893 7.691877111470248 11.095091015224638
Ag 10.19725920146344 9.733987001251162 13.019818572109635
Ag 8.961237244106492 13.001756035688695 10.66765885159102
Ag 9.890283485121449 11.856436483311901 8.33117053130359
Ag 11.332230622370242 9.387424388691581 9.14176616882063
Ag 12.643692610712199 7.054488255702085 9.98151747366157
Ag 10.585465287389402 12.580562904250252 13.00312100004553
Ag 12.642422982602126 8.575307822536644 12.409628905904569
Ag 13.422130664930181 8.375308337374646 7.675103361780808
Ag 10.136785316237633 15.213748227532884 11.894926456342297
Ag 12.211595252188797 10.699305975100618 14.549801756510783
Ag 10.864227961365728 14.289902005106958 9.09167857479622
Ag 13.94413563193491 9.594619143180783 10.10112151846368
Ag 12.984801232052375 11.287457839750749 12.004086344119383
Ag 12.501907246585377 11.943367150122416 9.363600035446352
Ag 13.169236938920388 13.311063745840684 13.953584971267409
Ag 12.513443356842219 13.927800832151084 11.321747864671474
Ag 12.380069166548907 15.980734472994904 13.203596354571927
