14
Energy = -26.84315063 eV
Ag 9.296601280903749 11.33191070851206 8.99136077170449
Ag 12.007997394817382 11.272932304749611 9.370122876802585
Ag 11.36074017254985 10.230330078852766 6.8468372774801916
Ag 10.368022287345239 11.334743859151937 11.571512518333623
Ag 9.634307712654762 8.667586140848067 11.571512518333623
Ag 11.355576767185074 9.684285475834125 13.614294560436614
Ag 8.646753232815211 10.318044524165876 13.614294560436614
Ag 13.448528164982546 9.085526633465738 8.466282473304233
Ag 10.705728719096252 8.67041929148794 8.99136077170449
Ag 8.64158982745043 9.771999921147234 6.8468372774801916
Ag 12.47604675884237 9.193902138524578 11.14774452193827
Ag 7.994332605182619 8.729397695250395 9.370122876802585
Ag 7.526283241157628 10.808427861475426 11.14774452193827
Ag 6.553801835017454 10.916803366534262 8.466282473304233
