47
Energy = -102.26627356 eV
Ag 16.428180746845904 12.406791222170824 10.99452484439698
Ag 15.785794188565369 11.468914452790983 13.648799153876388
Ag 16.570565065162253 10.374585654670716 8.886681034937485
Ag 15.161204277846897 9.850512566645017 11.357927459930174
Ag 14.246708229465643 9.067195557317154 13.888872029619787
Ag 16.214174472088985 15.127849213874844 10.399177329147081
Ag 16.448497858391733 13.132602644260524 8.201495370349864
Ag 13.594932187173978 13.041765383238847 14.752343004327878
Ag 14.671874905557306 10.866215243632377 16.122319032857618
Ag 15.28138315284396 14.352766837559386 12.876068748136618
Ag 13.696391127481045 12.261862452925996 11.973648136693846
Ag 13.05647167403869 7.817688120509658 11.599277201894997
Ag 14.215381892670756 11.842089285608642 9.256885160420472
Ag 11.959385647908418 10.716642312148998 13.712973058879301
Ag 14.672790645423127 10.953185844697062 6.759234719821874
Ag 14.127072312945783 8.927734387769467 8.892095061339985
Ag 12.654291252419895 8.9724837285105 16.184293719866268
Ag 11.899498217283305 11.71316662847681 16.486708121005023
Ag 13.10219182715215 15.173722260900961 11.12193792855534
Ag 10.86881884893421 14.250709536037972 15.472481198153778
Ag 14.255382443980487 14.772066704414662 8.553240161796843
Ag 11.364169980482146 13.469146929538244 12.844139589728226
Ag 12.945159912775653 15.608660580950033 13.93519680408485
Ag 12.68147784470855 13.050529183313051 7.143090324930116
Ag 12.23047046604934 10.215714391100745 10.700656671427113
Ag 11.133501292853769 17.173289771005052 10.468770883140019
Ag 11.968025120207978 10.495717977502887 7.786902828992609
Ag 11.339979626772603 8.051687475669764 13.915893842342424
Ag 11.44116627160401 8.000452054991836 9.046287145472773
Ag 11.741913910790778 12.856462125414126 10.019332576446843
Ag 10.398096951767686 16.080901219487714 12.912615214491833
Ag 9.966353021667421 9.606716198577809 16.20963462865003
Ag 9.8274125228378 12.873153094080003 8.133577644320797
Ag 9.277929378402112 12.394709356983876 17.281617942802562
Ag 9.583098172524378 11.929299185970072 14.620830516182698
Ag 9.688992152345971 14.745630369372352 10.483338866398965
Ag 11.551034766911709 15.269403287012878 8.477448325906177
Ag 9.852906206423059 11.326909497123395 11.882490872401888
Ag 9.603339504793855 10.247251731809019 9.230220439357092
Ag 8.516512146373154 13.962211413291083 12.866145072023986
Ag 10.10203919229351 8.4102570520553 11.436627638892293
Ag 7.918469953262504 12.520494036718238 10.36114129020838
Ag 7.397739768057508 10.643271026270458 15.836696178424269
Ag 7.380468383107613 13.442679262488427 15.390886741493786
Ag 8.676033035302474 9.267321760602243 13.703039487927693
Ag 7.04520895729877 11.629549354960492 13.161688970742603
Ag 7.582155064966832 9.76267620430915 11.13539160596246
