14
Energy = -25.73181062 eV
Ag 8.638482 8.638482 10.728238791419184
Ag 8.638482 10.728238791419184 8.638482
Ag 6.548725208580815 8.638482 8.638482
Ag 8.638482 8.638482 6.548725208580815
Ag 10.728238791419184 8.638482 8.638482
Ag 8.638482 6.548725208580815 8.638482
Ag 6.6900049074019625 6.6900049074019625 10.586959092598036
Ag 10.586959092598036 10.586959092598036 6.6900049074019625
Ag 10.586959092598036 6.6900049074019625 6.6900049074019625
Ag 10.586959092598036 10.586959092598036 10.586959092598036
Ag 6.6900049074019625 10.586959092598036 10.586959092598036
Ag 6.6900049074019625 10.586959092598036 6.6900049074019625
Ag 6.6900049074019625 6.6900049074019625 6.6900049074019625
Ag 10.586959092598036 6.6900049074019625 10.586959092598036
