46
Energy = -99.79838792 eV
Ag 6.7705727169070515 11.579598601390463 9.936195102764202
Ag 10.669118795816358 10.383855688054629 6.1436682270182335
Ag 9.111715649987858 8.327876549547 7.313042799735726
Ag 8.636023272687673 11.037395814949543 7.933736960638785
Ag 7.036381636068547 9.98716373165668 12.2509253491927
Ag 7.554275421959588 8.831100445470618 9.61735497493073
Ag 7.871920463573755 12.831856417720344 12.230165827343386
Ag 10.861393279128313 12.798813958357954 7.632465235264216
Ag 8.975722430302554 13.405175988923986 9.602266426331902
Ag 10.249518162886341 8.020542526324526 9.82902221926036
Ag 11.926126515538922 8.09750476439047 7.3701501030133345
Ag 13.39470506605013 10.565560813199811 6.794740467978493
Ag 9.34994843150395 10.725182156939033 10.780262247560936
Ag 13.049596340287428 8.064990514923085 10.061205947748483
Ag 11.55845628966778 15.022209143609556 9.50413672427683
Ag 11.653910267376412 10.363186442795163 8.901662874676378
Ag 7.355335430165398 8.399530324474577 14.512689970600166
Ag 7.898847112415865 11.302795981007147 14.612620424645757
Ag 8.458227754432723 7.519168811041183 11.991894108138066
Ag 9.871095747863928 14.855074817863372 11.847175131657751
Ag 11.546899486992901 12.594527214545808 10.608007427133243
Ag 13.490791005485251 12.751476506684064 8.570432674258997
Ag 12.185345910822539 16.598385911807316 11.831123311876317
Ag 11.38831501247774 7.259676403333429 12.257728543991362
Ag 9.705482845760754 9.480994702617892 13.51565544204625
Ag 10.62608893273148 16.093606744742186 14.180276977563558
Ag 14.262014505057374 14.668126232529335 10.473959234785504
Ag 14.667989109506419 10.201647715347148 9.280023584376996
Ag 10.483367160903732 12.179832832831956 13.134810988252434
Ag 11.899353935831039 10.014604165592704 11.745297478887185
Ag 12.688512851432263 14.099684988355435 12.782979481080668
Ag 9.907319232120155 6.961618334149759 14.579958336537167
Ag 8.99021217469963 13.905932003798025 14.64887479839466
Ag 16.111172110435913 12.664540751476943 9.445319948738693
Ag 14.16956172547821 11.932159379362831 11.494891339013256
Ag 13.295958803403618 16.051428879684842 14.873751806806025
Ag 10.635034356261118 11.115528393479012 15.658058395921715
Ag 15.125909787162634 15.892043985346586 12.816040910595124
Ag 12.267861515183517 8.82851703226242 14.420034382112117
Ag 13.076337434742289 11.456667052757245 14.122765649401966
Ag 14.45446952868954 9.157077569898162 12.332217766280797
Ag 11.754627076370419 13.74322566792995 15.392926778286485
Ag 16.398926431692672 13.539419686937118 12.103807820848333
Ag 16.67841886096516 10.548503832498728 11.247784832643616
Ag 14.778814214644115 13.673280143773288 14.583778496073224
Ag 15.866328062613889 11.232091348498075 13.79659256463055
