54
Energy = -118.55670075 eV
Ag 15.390598576074764 10.057385461588172 12.358151673731161
Ag 13.64719834418323 12.113997813166296 10.954490712542432
Ag 13.380029272568098 11.76018185027277 16.768599365389694
Ag 7.359445549936075 12.794844238721721 10.307329219486393
Ag 14.728004423646523 13.963623706533975 15.62489476833178
Ag 15.108634270999223 9.916859686019967 15.208834052633792
Ag 12.021230789013178 13.961981486961585 12.51288368885564
Ag 12.260227344727104 9.665350646384802 15.129719023701385
Ag 10.494639014132998 15.937526232112173 14.253791659682173
Ag 16.603531416755175 12.327060533363344 11.234832722039958
Ag 8.331691120618363 10.760637897485386 14.840668560906453
Ag 9.807220558897132 8.794221826652688 13.332515068329913
Ag 9.232386350120539 13.90611413877007 12.281378287217672
Ag 12.286940729182158 13.03974258793226 8.508465128359004
Ag 16.33897257305451 15.032423573013912 10.449454352613103
Ag 8.462155558090434 10.638578153627536 9.000985159032654
Ag 12.464408357365398 10.059393974854816 9.245409288541701
Ag 9.346298621665467 13.25131398076303 8.274945189155222
Ag 13.497557040961684 11.907660151393973 13.877636621167476
Ag 15.217197534931625 13.061784505002866 8.766326392620238
Ag 10.679852662384851 11.112978534144144 7.200917008163876
Ag 10.667091476100625 11.920203088395905 10.61262761780214
Ag 9.165041231433598 13.537201887118611 15.220362024398296
Ag 6.9759162136202715 12.769508241960489 13.346265388052423
Ag 14.159199040273322 8.090244160704454 10.731529992427731
Ag 14.850753396024022 14.152493182486266 12.757132148657277
Ag 16.44520488003505 12.136880697278455 14.086533721426575
Ag 13.303989864836906 15.983282618916768 14.34526023721213
Ag 8.280023970962189 10.70183080191413 11.91395889280479
Ag 14.73061779431406 16.835327619924826 12.017498546128957
Ag 7.7207606950020695 15.651473371976037 14.20616837888867
Ag 13.561427452721848 15.002837437947266 10.200729870486628
Ag 17.56326584459659 14.425747377957395 12.917144533409118
Ag 11.891049132762591 13.94385577330303 15.726269344461702
Ag 8.086464717911928 15.422427282322628 9.447968875361761
Ag 14.019583049624764 11.09108820495075 7.199336013935632
Ag 10.620123996879833 11.531639127769859 16.472757783621184
Ag 11.95062537342991 16.76900384288303 11.959214143542015
Ag 13.941101665033319 7.955906978114422 13.561930375960122
Ag 9.995396492363433 8.858916498534686 10.539213372473315
Ag 15.571758428977066 10.355436913064393 9.526004214974458
Ag 10.772497445225424 14.930853956940293 10.037508747198336
Ag 9.151361198978519 16.669813087704767 11.848071178103007
Ag 10.61990666163874 11.695512237648826 13.531036356165002
Ag 12.293118250287206 9.874644481179049 12.110130759950861
Ag 14.518982079765006 8.307845053724536 7.9707401557483815
Ag 9.81784532345471 8.79088885573998 16.162787530978846
Ag 9.767266471201296 8.509268247971631 7.798771739611658
Ag 11.983198629587587 7.297307259691423 9.056957197525582
Ag 11.455872316893055 7.004935280237977 14.649993577184866
Ag 11.75827710517626 7.084186955914126 11.87875120046736
Ag 12.233544332691398 8.926924196674987 6.572290454132671
Ag 6.666814208011217 15.078690060920902 11.748245214236134
Ag 16.167441001729763 11.920133501274794 16.867304959544494
