55
Energy = -120.10230644 eV
Ag 13.257123208313768 14.334526528756232 11.47275144642376
Ag 16.191801204677837 13.85986187334526 10.910181404635386
Ag 14.947552683283302 16.584181229151035 10.82714569292941
Ag 20.196294461929046 16.505056287150296 10.962904947161135
Ag 17.562044590490608 16.21460224315725 11.608723426368986
Ag 14.577634460938093 12.159415206141402 12.600175799033918
Ag 12.825196548432032 14.263790723697012 14.293400552223009
Ag 15.418174584471082 15.08532688580468 13.24121139268526
Ag 17.138715511867634 12.71274923256863 13.3404785226279
Ag 14.95111718004326 21.446119589173954 13.253255776559616
Ag 19.171253568005213 14.009860426491182 12.071890205504932
Ag 13.094653804037016 16.850049542094407 12.933686403456825
Ag 19.68633164694414 16.259516501847777 13.663307127894123
Ag 11.80859327518307 12.09943399983083 12.918077721950622
Ag 14.189230560746203 19.28174459981268 11.603615124534675
Ag 14.248006404821515 16.34578223099858 15.553709538516749
Ag 11.661568744364333 17.521767107442347 15.31303204582176
Ag 18.784035016674004 18.592477207861442 12.385250892442318
Ag 16.020558884026773 17.979654746060707 13.161391823688753
Ag 17.32118212867837 20.363277954057917 13.990026626184154
Ag 16.74655206490315 22.84039606683769 15.0167257482228
Ag 16.18930497085811 10.652126480495985 14.931263592196704
Ag 18.918801077856898 13.915473259801631 15.144185494815218
Ag 18.90504666253227 11.15634246162029 14.81308636630398
Ag 20.05388176151893 16.25223034014258 16.383343302267587
Ag 17.223676685522687 16.18306660702278 15.167508175465903
Ag 10.945738027943873 12.400337676884302 15.696467848789794
Ag 10.745207838619267 15.03873533594228 16.185963548389793
Ag 15.801127480732646 13.743875378237476 15.740942887448485
Ag 14.94098051131923 21.101912006878432 16.189238550248522
Ag 13.668663250058271 19.248497178765817 14.373930497279838
Ag 13.51542122054874 11.54059813901337 15.057918029878971
Ag 14.148872140216426 9.03877686025259 16.000297998638093
Ag 20.25748578899536 13.676521009895641 17.620144845595465
Ag 13.365591915371049 13.734421232100559 17.061267051395227
Ag 16.028507414842796 18.52354443257958 15.99749191575791
Ag 13.431360586750618 18.865047690016265 17.133082809875706
Ag 18.947820564791243 18.53956271286077 15.222626847374245
Ag 19.958798212371903 16.213832135424774 19.110691831061356
Ag 17.683575975730474 20.65474471129766 16.810566397299308
Ag 17.762923639084722 12.192573565793786 17.21360131067602
Ag 12.39129286945266 16.41169220227506 17.825762670559797
Ag 17.863457778499033 15.042143994025992 17.739140247681835
Ag 11.201861473214692 13.653789664059977 18.677363239117327
Ag 15.47845892638246 16.46033843943322 18.134177401113394
Ag 15.054632443627817 11.205452703955332 17.4183543557083
Ag 12.278954233546049 10.899535080430764 17.599271450121734
Ag 13.629679927604045 12.147684225446302 19.67427962151598
Ag 13.678707852501391 17.852195167419286 19.844571388185532
Ag 18.092285178293523 17.90826962759736 17.844419095927712
Ag 11.323165950742345 16.25567981802101 20.346075282713585
Ag 15.790611817872044 13.657734783119906 18.762175143587562
Ag 16.511413958723615 11.159554798277762 19.676919403969567
Ag 15.755970279078594 19.41438482354122 18.629068990091476
Ag 13.669909331957966 14.960543555081312 19.864668470073813
