17
Energy = -77.59701669 eV
Pt 7.602259074028486 13.0911224520953 8.800758312413905
Pt 9.0724413980361 13.230083979855232 10.917877770903345
Pt 12.25781196437501 9.11529427007378 10.251352379720903
Pt 10.183945121252082 12.630104705169385 8.440191952392325
Pt 7.483648910205056 11.11004872726127 10.648205953624617
Pt 12.02568623429611 10.859496001011678 8.362906153993178
Pt 10.86254274040748 11.392023831432592 10.63835368586997
Pt 9.323383198692591 11.295400454653933 12.707883001012894
Pt 11.1801277829955 9.531556359599149 12.605254864212972
Pt 12.949405946945399 8.514622128974494 7.876540279694839
Pt 9.069332357581873 9.055546450004782 11.286847204120603
Pt 10.358642762687365 8.89979939922023 8.120457841063693
Pt 8.612252759794671 10.643059683790792 8.438902595340679
Pt 12.22975029045644 7.289941593659775 12.009302888927389
Pt 7.300136442360665 8.740115976497133 9.533138082938198
Pt 10.362758354229175 7.130417849075812 10.286791451076853
Pt 8.732444172119717 6.960990143535641 8.39967544220209
