10
Energy = -41.33542541 eV
Pt 6.492333603937339 9.168224914779493 6.159006484921087
Pt 5.774732894776134 8.194821507033785 8.536518352200595
Pt 7.826024230007732 7.386466801088143 4.733459139311513
Pt 7.436769164128286 10.239118333765138 8.382130352597379
Pt 5.986819373348623 6.5645638587816135 6.450028452373343
Pt 9.673381496874244 6.190687768304625 8.813649890766074
Pt 8.155580610711876 8.117330300078553 9.763002419029656
Pt 8.468251266342884 5.588279413295311 6.559832752155398
Pt 8.559954989565293 8.076003831236637 7.225914252107175
Pt 7.042076953233612 5.890427854562453 8.792382487463778
