15
Energy = -66.88633995 eV
Pt 13.444169580799498 10.570476282469834 11.673094907340142
Pt 11.78052480168603 8.7440214611978 11.116858977939026
Pt 12.153801797810662 10.893084221902559 9.444156187782626
Pt 12.305550637312686 6.690266637368094 9.690068805033222
Pt 10.241050265068115 10.856968862819732 7.7541023275517595
Pt 10.972597285506074 11.227626982785647 11.720388030573341
Pt 11.310077338578257 8.652645974381745 8.425592163371801
Pt 9.869888057422498 7.139342673421321 10.237204749396856
Pt 9.134042794142818 9.437246640893731 11.532288891687605
Pt 8.639884118508814 9.292610206618205 9.010671722016232
Pt 8.562817802946588 11.906825093217902 11.508733308054909
Pt 8.190564350906087 11.771755705008873 9.023600249845344
Pt 7.825515456894905 10.452322626716265 6.850824493599303
Pt 7.4248391008331325 7.768445946670582 10.641026978207353
Pt 7.097223180710631 13.548907253654505 10.323934776727551
