13
Energy = -56.30893189 eV
Pt 9.093117977295968 11.875670178780986 8.475896196183868
Pt 11.418816796983045 11.481778693765621 9.394857458999793
Pt 7.523358496930345 9.894393399127614 7.718253433003831
Pt 13.75689018198535 10.690618140221218 10.143864324032545
Pt 10.03563581253151 9.440294922706665 7.958141005552285
Pt 6.950093972005707 11.124021983794167 9.983134796613504
Pt 11.72285541412006 9.468868878933257 11.19260733214297
Pt 9.427495811947644 10.833983236642142 10.936210263475411
Pt 8.292418017535404 8.711955889747262 9.89232087054176
Pt 7.328311973998018 9.74055650490254 12.135267685476016
Pt 12.476433392319807 9.073409424310842 8.61628525273244
Pt 10.619551999982368 7.55761305073055 9.69611213789896
Pt 9.596986312739373 8.378968044747733 12.134429406169144
