15
Energy = -67.08490148 eV
Pt 11.342210042226226 11.216578735957114 13.305587577289245
Pt 11.011882684083112 9.132351415092696 12.051037849797819
Pt 11.086311402919982 6.544696649556725 11.766832295902011
Pt 11.383412376992716 10.638031668820096 9.881143129159375
Pt 11.630332086940323 7.955904008814866 9.713333238922676
Pt 10.442577827927467 12.475093374323983 11.376186810590477
Pt 9.001814935994576 7.742916484551201 10.912743750464221
Pt 11.530280713432388 9.430121670495653 7.534499448151862
Pt 9.436023217954054 7.743062379359898 8.37285329095019
Pt 8.95311761710703 10.446359672732697 10.997556202514629
Pt 10.84561314333677 12.006115807308749 7.840771269750906
Pt 9.413557561340939 13.538121694531307 9.300535252151581
Pt 9.07917369555569 10.243246412304575 8.040512717737112
Pt 7.233200615016552 9.095913755643284 9.51780600484152
Pt 7.577683567973599 11.758677759308295 9.355792650577099
