15
Energy = -66.63180021 eV
Pt 10.824745827470306 11.855982029457849 8.334065880280553
Pt 9.383164696042789 11.651060107917678 10.448147792630028
Pt 8.467796191540232 12.923861114716152 8.308944742057154
Pt 11.91076435208204 11.423834344754658 11.062572240945748
Pt 12.945043981064257 10.550523093872835 8.842471682655747
Pt 14.056713294357259 9.948424358433044 11.0974567552475
Pt 8.700907794057043 10.375106395517939 7.632563685793293
Pt 6.991069987773807 11.039872334157337 9.501831981951108
Pt 10.689040357590054 9.245365908177096 8.927073806666582
Pt 8.236118902272727 8.747059558852207 9.633504673169343
Pt 12.11216986487887 8.351495795823608 10.878488948818916
Pt 7.62125494817523 10.197192047648281 11.880866421196115
Pt 10.20288881867935 9.682460175963817 11.916532576959565
Pt 10.07092200933787 6.959630838786489 10.216630018420982
Pt 8.516110182899954 7.7528174583931175 12.09588387933342
