13
Energy = -57.4643821 eV
Pt 9.729166865492294 9.791281297808384 6.7761264018182255
Pt 11.659150816525399 7.888483243960113 10.415265047095632
Pt 6.533247605655473 6.407668228808787 11.343362169217198
Pt 9.569639007386167 11.594101647495764 8.7955134318171
Pt 7.679554579718828 9.61659632831822 8.588199763155727
Pt 7.777473484672095 11.208115272132442 10.589890981274454
Pt 8.065453758021743 7.837633791022393 6.7912585101851795
Pt 11.68897366937056 9.778347443685572 8.762644286196267
Pt 7.528948180649042 6.923053781914345 9.14375277011323
Pt 11.44725839540707 11.650111267361034 7.0751878427024115
Pt 9.735517387634143 9.52597619393974 10.633168419522963
Pt 7.357890239569502 8.723910289833663 11.15448002048435
Pt 9.898805899644168 7.725801103466285 8.602230246164
