13
Energy = -57.19708313 eV
Pt 7.902353269123055 9.932503284185067 10.826218133330277
Pt 10.392921948424398 10.398313289055901 10.84314498148614
Pt 7.435485810233376 12.2857123223698 9.860273649855875
Pt 9.39129744351866 8.79901514035981 12.566952516391773
Pt 9.894755147521334 12.360257407428225 9.33772638115223
Pt 12.31852089439108 11.63305887398756 9.659185294332092
Pt 12.105588370799172 9.927783372187568 7.830903540485998
Pt 9.61482451446596 10.23334182988265 7.968212279836745
Pt 7.1371778665890915 10.201626907019493 8.324817003713815
Pt 11.029879935775433 8.287826682055128 9.399844840219766
Pt 8.341708270000629 8.055691706277196 9.044988955923273
Pt 9.614936542871467 6.895732576783199 10.940117869445677
Pt 9.944592213333463 6.113178835455389 8.521656780873736
