10
Energy = -40.20976437 eV
Pt 6.64137476162032 8.071294127306901 9.822943344809863
Pt 8.69125761 6.6296999575317095 9.77613428829638
Pt 10.74114045837968 8.071294127306901 9.822943344809863
Pt 9.964672132706573 10.47896101497471 9.889634436875598
Pt 7.417843087293422 10.47896101497471 9.889634436875598
Pt 6.64137476162032 9.311221092693097 7.559571875190133
Pt 7.417843087293422 6.903554205025289 7.492880783124402
Pt 9.964672132706573 6.903554205025289 7.492880783124402
Pt 10.74114045837968 9.311221092693097 7.559571875190133
Pt 8.69125761 10.752815262468294 7.606380931703614
