18
Energy = -81.89031156 eV
Pt 12.542348747088166 12.7039462187732 10.441632739663564
Pt 11.570862654696155 11.467826938846564 8.45405326993316
Pt 11.790132301917449 10.502644937460499 11.588484539099484
Pt 11.823079671700796 9.075137217494698 9.557810532633042
Pt 11.946484306925004 7.220344207997424 7.804141255041855
Pt 10.295534928836181 12.762029836300858 11.578363906681043
Pt 9.427075581289333 11.111168188086333 9.801749497443021
Pt 9.933104148627988 7.071182718062726 9.42299307276208
Pt 9.567404923606244 7.066416431570486 6.7560389433057715
Pt 8.029613985335278 7.022573149302521 11.037945865973809
Pt 9.199191219218957 11.38508456361813 7.160756512209036
Pt 8.740988061016097 9.07826446495861 8.339353516943083
Pt 9.701071986808381 10.74432964881039 13.196821324174245
Pt 8.064661118729775 12.69387843481768 12.79589140808872
Pt 10.857044595680515 9.421416136148311 6.964383042232045
Pt 7.571539613955165 10.606719925615023 11.461174247288906
Pt 9.814139372827931 8.821369829713028 11.461866404320379
Pt 6.770324876358196 8.847359391695713 9.89326034404588
