11
Energy = -46.31145844 eV
Pt 7.611915799397553 7.546370595433529 10.738774227143718
Pt 7.378815552962906 10.841271280263925 9.427731247863324
Pt 9.135441482553171 10.93299146599666 7.453305904531323
Pt 9.346345433302517 9.409664686662385 10.34909283877698
Pt 8.56879056183654 8.455666029812562 8.039833850362546
Pt 10.993140889903131 9.22533695712664 7.524648773481583
Pt 11.807922433446828 10.064581040414918 9.81262891070119
Pt 9.77637429835813 11.911348388816888 9.742623181750808
Pt 8.940899527217514 6.146857763010959 9.101699567084811
Pt 10.998848210134275 7.557454658294402 9.585218060654366
Pt 6.180275810887175 8.647227186787095 8.963213332409076
