12
Energy = -51.06484602 eV
Pt 8.132333300757793 11.69245339899674 9.265540668561943
Pt 8.120947419740325 6.453141484207201 9.38410346545521
Pt 7.817667095377459 9.045764299289493 9.614841512173665
Pt 10.357559490539776 7.6945557952474095 8.474694131610955
Pt 10.192098233104948 10.388414526743908 8.46858971267906
Pt 6.620299810666044 7.8211800064885955 7.624740448830759
Pt 6.714334702029901 10.4250674950357 7.586497903685332
Pt 9.559367645899913 7.729581992809502 11.070055568053686
Pt 9.534393777170047 10.413595269817344 11.056952160397895
Pt 8.797240802761955 9.137993230519786 6.817368174017997
Pt 8.812864825022103 6.4922847921061315 6.804150485757452
Pt 11.69916102507683 9.064235580591713 10.190733768776186
