17
Energy = -76.71112803 eV
Pt 11.720526660347996 8.076875916943436 11.168245074374731
Pt 8.127268423470554 11.512995314963844 8.899165441732274
Pt 11.547505114530866 10.477062863265829 6.792157071796624
Pt 11.665742929332193 10.709560626636097 11.197059380297812
Pt 9.3921665 6.896268335745729 6.813856497645272
Pt 7.118590070667816 10.709560626636097 11.197059380297812
Pt 9.3921665 9.39189923804389 11.277711760902193
Pt 10.787560073758202 7.432644702694306 8.860686302272441
Pt 7.063806339651996 8.076875916943436 11.16824507437473
Pt 9.3921665 6.792848534917895 11.060022251688329
Pt 9.3921665 9.309760065021754 7.65256915287074
Pt 9.3921665 12.042867930328395 11.107351956475252
Pt 7.236827885469141 10.477062863265829 6.792157071796624
Pt 7.996772926241794 7.432644702694306 8.860686302272441
Pt 6.419201958339088 9.407453794947898 8.960346212695988
Pt 12.365131041660907 9.407453794947898 8.960346212695988
Pt 10.657064576529432 11.512995314963844 8.899165441732274
