12
Energy = -51.99812472 eV
Pt 11.959955108845195 8.613336703898899 8.447474743475924
Pt 10.746191163773444 10.817263133114666 8.158091966252115
Pt 10.864617487859988 8.17470238091099 10.697209929852823
Pt 9.313043082654668 12.838421587296553 7.948996765282237
Pt 9.367445056117182 10.18066399512699 10.20810942081948
Pt 9.537116376776277 7.864402411244798 12.775681116689524
Pt 7.69469029710006 8.604564190722972 11.26408184909304
Pt 10.232369219296334 7.282350070281791 7.220162088626269
Pt 8.759531519590569 9.332600049335547 7.525162070817266
Pt 8.824848014821217 7.4901607051689725 9.323733959816678
Pt 7.597016803437712 11.203539954794273 8.722303780281665
Pt 6.435466079135109 8.9302850275117 9.041282518400466
