15
Energy = -67.0596957 eV
Pt 10.842324277866052 11.376129378988445 11.785060677588943
Pt 9.202326524278948 11.764759605405056 13.811985452213792
Pt 13.257173068257153 11.01922374951083 9.499538191888085
Pt 10.456003073212594 7.381249681283527 11.678783522322911
Pt 12.000688591448055 9.038508868985732 8.112619529290606
Pt 9.224421996859904 9.077516266494605 10.24986058224329
Pt 14.146839993022965 8.642560353251982 9.415420739161858
Pt 8.287030678527016 11.423029108936502 11.483964982411434
Pt 9.478744474701642 9.240725437328894 7.712387236541054
Pt 9.532171937157491 9.436377548973798 12.842186535919378
Pt 11.87458775365895 13.018057095784284 10.137355243631733
Pt 6.422642166924349 12.412242765281082 10.195729283114936
Pt 8.091616364508146 11.07462034750385 8.948873010312404
Pt 11.940463078307806 9.203962615727283 10.707446714394798
Pt 10.6296659901017 11.277737145375596 8.805488267796688
