12
Energy = -50.64192725 eV
Pt 10.963653483475246 8.754227583483287 11.177839385962438
Pt 10.993017780867875 11.492172017664794 11.190141979999822
Pt 8.7431103040779 10.101583232220333 11.192914122413903
Pt 9.013559070322259 12.541281333352133 9.890129
Pt 10.993017780867875 11.492172017664794 8.590116020000176
Pt 10.963653483475246 8.754227583483287 8.602418614037562
Pt 8.7431103040779 10.101583232220333 8.587343877586099
Pt 12.847210095466865 10.063328457577756 9.890129
Pt 12.898052303397524 7.502732556312516 9.890129
Pt 6.798817836771044 8.848264851364414 9.890129
Pt 8.982270659520724 7.583738551570604 9.890129
Pt 6.742074940640727 11.446236497164195 9.890129
