13
Energy = -56.76754205 eV
Pt 8.990738265212082 12.562419679423943 11.695879748552992
Pt 11.146175 9.798956883838976 9.999679653096452
Pt 8.950462203459654 11.146175 9.459918748500021
Pt 13.301611734787915 9.729930320576065 11.695879748552992
Pt 11.146175 12.493393116161023 9.999679653096454
Pt 13.341887796540348 11.146175 9.459918748500021
Pt 11.146175 11.146175 12.437861790710958
Pt 13.301611734787915 12.562419679423943 11.695879748552992
Pt 11.146175 13.82908770418328 12.30327539769411
Pt 11.146175 8.463262295816724 12.303275397694106
Pt 8.990738265212082 9.729930320576065 11.695879748552992
Pt 6.933061901475722 11.146175 11.076573308248275
Pt 15.359288098524265 11.146175 11.076573308248275
