16
Energy = -71.33692701 eV
Pt 13.015821704522647 9.168860497271481 10.622694967359578
Pt 14.320099482507526 11.406290721277168 10.461029516141988
Pt 12.398612734098393 11.316746559094854 12.103079997476925
Pt 10.811509495869512 8.760363111992438 12.141169432173479
Pt 12.35333380030545 11.062529172523176 8.867136877835454
Pt 10.876485869796154 8.27399364292782 9.522530541192074
Pt 10.478605398736377 10.890185019568321 13.704241782787395
Pt 10.40037504853766 10.658463124138057 10.46167768907627
Pt 10.24736192073777 12.846109118955724 11.69181278782033
Pt 10.423490023253073 10.256546025097327 7.399816067070979
Pt 8.473611774023396 8.59353761406229 10.636243852161886
Pt 10.138910559922294 12.690108409166449 8.921739070929084
Pt 8.461249608425646 10.725288329426343 12.174654770254925
Pt 8.336061147354886 10.805301348637899 8.785098710413038
Pt 8.749747098275266 8.295684286013437 8.02020933798734
Pt 6.564742620399114 10.300011306611932 10.536882886084417
