14
Energy = -61.77166971 eV
Pt 10.807141353623683 6.637262311489714 8.313217643568013
Pt 10.575607541830674 9.107246700604268 7.64033180592314
Pt 10.406294383167879 12.133885058651062 9.612365237145175
Pt 11.737987832701691 9.984833101921886 9.658368227003717
Pt 10.981986861202415 7.691614776763076 10.605977564257977
Pt 9.390521176616653 11.318951959932877 7.476303560668106
Pt 12.803437764385118 10.488247039350792 11.878815223928186
Pt 10.936039699095806 9.010754356805105 12.800402344858949
Pt 8.70970833748216 7.988974941823451 9.012116305819738
Pt 9.953905538942564 13.906360669093667 11.449427098936317
Pt 10.522110273845783 11.575964501840446 12.269790761874761
Pt 9.175096563008534 9.61642575062606 11.01985565260929
Pt 8.19687475831832 12.056497874005837 11.00693797281175
Pt 7.651421234957241 10.331114276269988 9.104223919773263
