15
Energy = -67.24662612 eV
Pt 9.766787263094084 12.822453691308365 9.852190126922622
Pt 6.523225230970897 10.412658603784953 11.715584315204055
Pt 6.8336905355294215 9.46978788816351 9.380577702517616
Pt 8.949533804127018 10.661808250950715 10.915261588572923
Pt 8.385273713540293 11.335557832688604 8.316993674780159
Pt 7.822096488078868 9.20032516749272 6.95593752593797
Pt 11.297207190706867 10.796659527331787 9.883850132134423
Pt 10.329538644995994 9.885615462153158 7.744603750220308
Pt 8.029390366173331 8.32305689158673 11.355017110554874
Pt 10.709970195920928 8.825725592541033 11.890659817430024
Pt 9.876975508003719 7.36681075103835 7.223710622686123
Pt 9.892185016352645 7.659886956321848 9.732328374834028
Pt 12.2611060353843 8.43252886548151 9.78071637738634
Pt 7.652738456754652 7.116521268900858 8.605240706707836
Pt 12.269386566732601 8.289708266620947 7.246433190476055
