13
Energy = -57.13382134 eV
Pt 11.008719637936615 7.324192806943473 11.387685483667093
Pt 9.83050228391845 11.330442196043709 12.585463222088123
Pt 10.811554739448784 9.785817695304551 10.814029213750755
Pt 8.484290979907879 7.203127880331394 11.633657417624908
Pt 9.54487011555571 12.004337702681019 10.159788530728882
Pt 8.287911771197289 9.743725943534239 11.241656710715947
Pt 8.202670053864535 7.90172686108373 9.248362929406193
Pt 10.80524266836851 7.935467526876182 8.968786530734459
Pt 9.265322713715618 12.597161672305205 7.715012752785608
Pt 8.243342371534156 10.403279841874808 8.511197241785945
Pt 10.76609822750784 10.51923232701949 8.105344504742881
Pt 7.98669351525355 8.516344203693373 6.832974193979674
Pt 10.513664179726286 8.486026600244053 6.5469245259254345
