12
Energy = -51.40248792 eV
Pt 8.70421469234606 11.331897878002083 11.078375627765313
Pt 11.410604307653934 11.331897878002083 11.078375627765313
Pt 10.0574095 11.353519261803955 8.821310221470869
Pt 12.606782676937762 10.0574095 9.188325570058105
Pt 11.410604307653934 8.782921121997921 11.078375627765313
Pt 8.70421469234606 8.782921121997921 11.078375627765313
Pt 10.0574095 8.761299738196046 8.821310221470869
Pt 10.0574095 11.339538908157259 13.262564070581927
Pt 8.775446432089144 10.0574095 6.915505925319536
Pt 7.508036323062241 10.0574095 9.188325570058105
Pt 11.339372567910857 10.0574095 6.915505925319536
Pt 10.0574095 8.775280091842742 13.262564070581927
