13
Energy = -55.25876934 eV
Pt 11.943454207698872 11.397588482964634 9.491909412980743
Pt 11.831830472810068 10.169568635885522 11.73133207959965
Pt 11.6734250135717 11.487625196988784 13.890836901243622
Pt 11.944819675214807 13.896090927398506 9.40389553238814
Pt 11.809127610138223 12.72173324296908 11.67501737785862
Pt 11.65763433760436 14.095462638313755 13.76850808060879
Pt 11.652623952025166 16.577461272559567 13.735334803914805
Pt 11.821995415782286 15.373994555759266 11.562484794174395
Pt 11.978202017737164 16.37721424813916 9.310410362961274
Pt 11.928750281249506 8.80042642193163 9.587391525622918
Pt 11.90195096961946 7.548409980638551 11.750834857769854
Pt 11.887350139332419 6.449232137451956 13.963324288897397
Pt 11.799831543801444 8.936187758999408 13.959715481980298
