11
Energy = -46.44735033 eV
Pt 10.54706490767846 9.02869209634153 9.546094826811592
Pt 9.494502961063404 9.725133962979063 7.12917248823963
Pt 10.740669341595565 11.366310606758471 8.577783725530987
Pt 9.174867449262724 7.130065587100608 7.987059240481215
Pt 9.924226572210786 6.730951464193586 10.36776138583872
Pt 9.312774992307974 10.20290686926698 11.509872790749101
Pt 7.937928493827739 8.413949318484546 10.330647799527888
Pt 8.055389270869442 8.05734389312363 5.896517747815796
Pt 6.765329538887994 6.76086347605228 8.800750576747399
Pt 6.963138091189502 9.175875491714917 7.941489524715115
Pt 8.29212060117272 10.929608194206 9.283605964875706
