14
Energy = -61.52720648 eV
Pt 9.457549399682092 11.826815524087229 8.961725184723795
Pt 8.354480537362562 10.667799761467741 12.864109162414127
Pt 11.580727065055717 10.7508263757652 8.023339194994634
Pt 7.295398164903824 8.383571725008798 12.048544787765449
Pt 9.162039934410151 6.972088369161647 7.4936246031869524
Pt 8.136465866953305 7.569700911181679 9.755509001051358
Pt 10.939547027576145 8.836716504147965 6.529761066641128
Pt 11.928868691393866 10.03885551012258 10.525743592054186
Pt 10.775545740552527 8.198566337485966 9.116295939086978
Pt 8.843810738496643 9.529076377739388 7.933790057426863
Pt 9.79046879871369 8.902517241880266 11.450355507178006
Pt 7.866063610249338 10.242160850058273 10.274866156840229
Pt 10.179966185722071 11.694796849895422 11.46691344670491
Pt 11.9196661478715 12.61710575305444 9.786020345460182
