15
Energy = -66.92206771 eV
Pt 8.56281214085742 9.19428400511477 9.111676023378198
Pt 11.10838105140421 8.887792606053914 9.110585097927288
Pt 6.114471602651186 9.501257441151486 9.110846586228654
Pt 10.616289258625764 11.489071636749404 9.110122462685434
Pt 6.791191198539086 11.931204176089347 9.110603625098015
Pt 10.295838634617626 6.334827183382105 9.111992169651751
Pt 6.168102433667865 6.976991401604563 9.11111137964108
Pt 8.643367593809156 11.192701134676971 10.702189960607395
Pt 10.953339626586073 10.203128182495846 11.391789206691136
Pt 10.645425874857443 7.651365739422671 11.384566748087556
Pt 8.263958428058363 7.13090674374397 10.569725732316739
Pt 8.642558971236776 11.190885253718559 7.519244239868554
Pt 10.95200566588878 10.201307269343413 6.829461285086274
Pt 10.644276992948766 7.649838344580211 6.838110014786678
Pt 8.263932973631547 7.130391381872475 7.653927915324908
