14
Energy = -62.30566269 eV
Pt 11.734586030640711 8.098534502972548 11.114214772670483
Pt 10.252987927597713 6.36221378877275 10.004523495630217
Pt 12.559984001111227 10.15955280129201 9.822927443331322
Pt 10.610330942640115 8.64821549306107 8.804824322607734
Pt 12.173355977940275 12.624234309067427 9.20436961786253
Pt 9.597507646228843 9.318649202511988 11.820450920525413
Pt 8.367235088827586 8.028908068855701 9.984445122363232
Pt 10.718262243471843 11.030551481373102 7.721701474603194
Pt 10.476485445757376 11.338144905307798 10.605660290789565
Pt 8.800399820636546 9.338870970499162 7.155102414077446
Pt 6.703641809347154 8.0319510446436 8.01172815255349
Pt 8.472362308217493 10.918006875795205 9.066309605687486
Pt 6.49374529314413 9.717713853320706 9.923638429956537
Pt 7.876846521012643 11.222183759101267 11.597834993915695
