15
Energy = -66.30430511 eV
Pt 7.202724822565342 7.81463477457365 5.5789027460687235
Pt 8.123870687616195 10.312797532122797 6.244709119984254
Pt 11.755220259345844 8.012464266072334 7.8260427426943515
Pt 5.778572995910521 9.316493742987149 7.203149623623148
Pt 9.419174937830473 8.013686932163447 6.685726609234503
Pt 9.915718391846253 9.978548452171598 8.193568655990834
Pt 5.778681435027836 6.733839651910888 7.483374017516409
Pt 8.115573741237855 5.640352251042545 7.00701557978541
Pt 7.479237823648324 10.090025741001606 8.853743101909656
Pt 7.367923041875776 6.163196190200493 9.492211692538032
Pt 9.792172510036728 6.614720513237761 8.810667792053405
Pt 10.752218476056926 8.635042395864932 10.199450382241576
Pt 5.687600597605598 8.178905218658992 9.689922215617495
Pt 9.195448321306031 10.718441006353505 10.702228954178922
Pt 8.180829904281262 8.321819277829535 10.57425471275422
