17
Energy = -76.35247527 eV
Pt 10.932525499306784 10.25245414879203 12.390849478971102
Pt 8.461330421858506 9.233403262200909 12.777614911226634
Pt 8.934547142877658 11.79479522524083 13.031621031483901
Pt 10.176512166745646 8.078155673935973 10.96650711902581
Pt 8.06660202129579 10.79507346331963 10.74464937181747
Pt 10.021983630309528 12.788897824735878 10.900791462266316
Pt 12.531204563386039 11.750729805257299 10.875158637190019
Pt 12.673803496201494 9.006177112498698 10.844882254169255
Pt 10.502137698380928 10.420853952826198 9.79694998951129
Pt 10.522545718951301 10.55107846379241 7.139109241811036
Pt 8.470319343633502 9.446652696547902 8.427916263219618
Pt 11.332880431538852 8.30873572258614 8.424244980346627
Pt 8.666934758070445 12.079547037985531 8.478139167982063
Pt 11.32452594130086 12.692859632635873 8.62410847760758
Pt 12.874805487545183 10.434216398230994 8.515446936809624
Pt 7.60413121893055 8.08542330056283 10.57993897278221
Pt 9.160418107952198 6.959417874523641 8.80248838052342
