18
Energy = -81.53976373 eV
Pt 12.295135571048188 14.615940373089032 9.207178583336306
Pt 11.888966399516363 9.29660101976917 13.466254014374597
Pt 10.23812954150716 8.089700266737097 8.656168267034962
Pt 10.468573277915183 10.994418690040295 14.810069655208014
Pt 10.38359336396009 12.46229530720558 12.634353078832826
Pt 12.578826998680862 10.656302738097864 11.398516384995753
Pt 11.162571178071186 8.48698311835572 11.150772025661844
Pt 10.202995298662909 13.991539696421487 10.62282345553267
Pt 12.650211075627114 13.614728471143254 11.62785427356393
Pt 12.74936778447289 11.97127151247257 13.600263998367435
Pt 11.779908656574548 10.148991006461596 8.994442403857636
Pt 10.7574419838513 12.638397970030173 8.411823819733334
Pt 9.395682091061515 9.992242961597434 12.67714412823784
Pt 13.193970297627658 12.212530861019312 9.470801165286508
Pt 9.380179134358851 10.524326083617751 8.013445960142263
Pt 9.414533953747087 11.474797332054877 10.443314643857976
Pt 8.576428678683808 9.053562856390313 10.43907214680679
Pt 9.455008165785951 6.625894050485949 10.613956710910328
