10
Energy = -40.88249913 eV
Pt 7.568300364925474 8.580905065619618 10.439151183208837
Pt 8.265000063223932 10.99545929713008 10.368861338435682
Pt 8.954444065242697 13.412243081866315 10.297174018030857
Pt 10.7385739391533 11.614373463135738 10.3502838172977
Pt 10.035365903312307 9.159726227597565 10.420726349103193
Pt 12.508872056764947 9.778473451707036 10.402837253790048
Pt 13.20494605612515 12.193280174750145 10.334292086790676
Pt 11.446286392525915 14.07894750283541 10.274956756329956
Pt 9.327342096497235 6.69432267116988 10.507614004279537
Pt 11.820094016700837 7.3614939731315046 10.473328238261733
