11
Energy = -46.97646912 eV
Pt 11.845835317868405 6.774498509144581 10.31833002225271
Pt 7.622075464498066 7.473089086672277 7.681379573239927
Pt 9.927235056087525 7.136398069942044 8.850997641685908
Pt 9.529991574162679 9.173430949123533 7.4244827111668945
Pt 10.891391088500875 11.205614518555787 7.901809775444969
Pt 10.197189960091375 8.371412324371223 11.248868209476992
Pt 7.859081082971348 8.717256568428994 9.909995209623442
Pt 7.3089422739498895 10.223711229772297 7.893279318472596
Pt 9.693529708660604 10.620352739060847 10.076817633098974
Pt 8.64047906489252 12.304591852834745 8.449257235011734
Pt 8.344124824067906 9.859519567845267 12.104658086277315
