18
Energy = -81.65036559 eV
Pt 13.099573917394263 10.883510989685767 10.207766387880362
Pt 13.06306082017751 8.409510525608933 11.063966844222215
Pt 11.527519953450527 10.095113458399581 12.26837841708009
Pt 12.092782308866632 8.857647155288612 8.69549193500106
Pt 10.986069013629324 9.452134040409357 6.474140131637087
Pt 11.001314205204283 11.380796497781303 8.18038619930039
Pt 9.533960610870361 13.466986749077588 8.798623041194954
Pt 10.786422988537684 7.2400658500058155 10.557598562048181
Pt 10.057713702428025 9.751051345511563 10.099364385575193
Pt 9.201850161386973 8.494776709825624 8.028928732283337
Pt 10.87951210964676 12.169144273353387 10.738506126896793
Pt 9.462366965216301 8.497511174762211 12.407812377958964
Pt 9.148812818212289 11.10248008459096 12.956884375342517
Pt 7.621082839932685 9.967579607068338 11.104222739212831
Pt 6.739804446010226 9.106619017150614 8.77151515565307
Pt 8.311908935565818 11.148697681395824 8.592067077952347
Pt 8.30909653642598 12.512705909110323 10.893055379290393
Pt 8.17067578143259 7.447347385677855 10.251795635004793
