19
Energy = -87.42750722 eV
Pt 7.103232191207493 12.895081839333388 11.448813609023011
Pt 11.217939248544408 12.094900293772387 10.634791264927681
Pt 12.769903708951022 10.00725639682494 10.061351774082812
Pt 9.118028735405092 12.120425995823503 7.529659863280552
Pt 7.931166358590678 11.130701218029428 9.689212740160897
Pt 11.14839900949521 13.51564790716928 8.403129537244695
Pt 12.817826455575277 8.79292619206235 12.456411511776132
Pt 13.082351029726162 11.39886830022729 12.246955340651166
Pt 7.273207215683865 8.650993972493369 9.264892201030682
Pt 9.400641670400681 9.65031924219155 8.23212451664405
Pt 8.17908433890619 10.712168439854372 12.189447269955904
Pt 9.589878883119189 7.183841034437941 8.864561156208422
Pt 10.547765244293881 7.57480778392138 12.986457168393157
Pt 11.401437038500054 7.748442720964852 10.560443618428415
Pt 11.902761836925281 8.446885307621512 8.118034280134685
Pt 10.653133271517195 10.216703821837012 12.289415243287662
Pt 9.136011426043773 13.367087569883958 10.022381223672664
Pt 8.918384714166214 8.46835869129935 11.181857909950136
Pt 11.578801300162135 10.997611161202306 8.006939686023891
