17
Energy = -77.11151897 eV
Pt 10.927068047419873 14.20525740974029 10.467911373495015
Pt 12.389515549679365 13.397121402967569 8.626601204605068
Pt 12.639045384590455 11.232180309426864 9.953320913717977
Pt 11.80344028267969 12.443930002215993 12.026027458207658
Pt 12.861748419625737 10.50726684553651 13.198943951018228
Pt 9.015806733725169 12.620223913281267 9.802722822807244
Pt 12.052200807296753 9.0872300476845 11.16088256186474
Pt 10.698765683841708 11.446984298276032 8.317335296637134
Pt 10.556218042039186 9.337481416080552 13.264639969666272
Pt 12.071719264976128 9.073561415699565 8.50361658609852
Pt 9.829281976190538 10.965841802789217 11.499038645079496
Pt 7.715427295368996 10.45277691545967 9.923445693275674
Pt 9.358943885315417 9.407434255986418 8.288944880365099
Pt 8.64423516306094 8.567174315074213 11.815373559857255
Pt 10.24707795454185 7.758339387750417 10.029555153137753
Pt 6.70564346259223 8.113956795248262 10.246270515654404
Pt 8.240407630935819 7.109968517355678 8.58252505318402
