14
Energy = -61.18052545 eV
Pt 11.127796731496575 7.519204282821839 7.097198585998157
Pt 10.20347908066354 8.749050253390863 11.887185545085307
Pt 8.917028618843824 8.697511463033878 6.500765569354501
Pt 11.842420501493573 10.366381518282532 10.321246066252359
Pt 9.8317099920382 11.342010853884146 11.762440365794843
Pt 10.654251629078237 8.19679082082643 9.52932135717065
Pt 8.213396778203627 10.387413931847933 9.994919554518994
Pt 10.130805164019309 12.071026960910897 9.221882061177151
Pt 8.805894723152157 6.825131563698264 8.537479035344383
Pt 10.837911918734616 10.055975601604846 7.783926800815431
Pt 8.343557362578151 11.065715150022758 7.540585839331074
Pt 7.877481433874362 7.927553463334197 10.71480226141106
Pt 7.847988507380061 9.759441792879871 12.536508995921178
Pt 7.0831494542075495 8.753664343461246 8.288609857588666
