17
Energy = -77.79604549 eV
Pt 7.076664015331021 11.27035407154389 11.350816842158073
Pt 7.35801489151676 8.775035793734192 11.75421313749864
Pt 6.705559301423147 10.656518051763783 8.910081940963197
Pt 7.488218177816312 6.34475802356925 11.0037910922179
Pt 9.704768125655196 9.047521451523108 10.814065643816779
Pt 7.4542456099530074 10.282605449692413 6.513463889196519
Pt 9.543105623808906 11.57471586241191 10.847517263651428
Pt 9.915754604400338 6.568762255179844 10.462788215210827
Pt 9.109075351801359 11.036789043547586 8.436518639528455
Pt 12.009693256851863 11.639756399430304 10.350598654571538
Pt 7.495816430951577 8.27978539933804 9.272210550260528
Pt 10.372534379313093 7.460493446132895 8.083277660340565
Pt 10.09898684897218 9.578927245082292 6.5353259892083395
Pt 12.29324358563924 6.949300851754043 9.736133489852655
Pt 11.517766174208225 11.3736915911466 7.779694974901153
Pt 11.711846407380046 9.347776490465108 9.26648142124777
Pt 8.143455652575579 7.811957011282722 6.881769032973619
