10
Energy = -41.12010382 eV
Pt 9.942570722181996 8.356737987179105 7.5429508318087555
Pt 9.036798728014539 10.794607819881607 7.916813617959935
Pt 7.4826735762324486 8.811279490508458 8.326366717365998
Pt 11.509780761338703 9.978338908978186 8.779806374174328
Pt 10.918118477674314 12.434861476979911 8.801607045412146
Pt 9.14302680885464 6.865832976423824 9.466099250875425
Pt 6.640589507158021 6.848615721772068 9.848597653104814
Pt 9.42861539045366 10.97425885586819 10.40405317050715
Pt 10.55657442598162 8.61942553900147 10.71614252860779
Pt 7.954620509513635 8.929410130810343 10.810931717587653
