19
Energy = -87.82927533 eV
Pt 14.180945382344943 9.93921752800969 8.834167672822757
Pt 13.392476244915303 10.967257679994923 11.019001751344165
Pt 11.724252101748666 10.867297184336245 8.52678741716891
Pt 10.609780569992138 13.178711443569567 8.26075799600283
Pt 12.181346722626554 8.371157152800558 8.431986780397985
Pt 11.247404093765258 12.447130193580952 10.672860364173822
Pt 12.01032957108677 11.752289493373103 13.027705459136147
Pt 9.934193131889257 7.514709153931585 9.954171084355481
Pt 11.55429693203359 9.289587527033435 10.72502870632348
Pt 9.211036183913102 10.901358972523473 8.24728852615424
Pt 9.674416919164512 8.410657276881178 7.534852029113237
Pt 10.77244405146493 7.513525409203337 12.4777823040185
Pt 10.097394214028627 10.00810351577784 12.732977396321141
Pt 9.482288475395217 12.541401508761753 12.671160888099479
Pt 8.742339508819159 12.623915519546358 10.043153718614484
Pt 7.90499662347285 10.736250074312741 11.499454360844116
Pt 8.002633509576087 9.098773522066129 9.539646218694022
Pt 8.281624957869019 8.192764531432244 12.08812524867828
Pt 6.594691790241708 11.244783297212594 9.311983062084034
