19
Energy = -87.61347979 eV
Pt 10.443925536095643 13.809050511681306 9.138778697393725
Pt 12.265028437603814 9.125017020179572 7.919944807114065
Pt 9.816149974996979 9.331342780281702 14.205307712339966
Pt 7.326969480205192 10.725871029041691 11.127203925701835
Pt 13.316866104096098 11.369345883232581 11.049306786315848
Pt 9.155387144662978 11.422156537230471 12.884350915089435
Pt 11.640491908178138 10.391624533368514 12.749245729519675
Pt 11.243288635509513 7.734691673816803 12.437768883862542
Pt 11.88356300807135 9.29031120784364 10.409665876080267
Pt 11.740522955883536 11.459408453436598 8.979785491106615
Pt 11.072070532190528 12.581570330708058 11.353107062518841
Pt 9.831380638797162 9.238776462328797 7.152225328371705
Pt 10.297065414555275 7.345342122440866 10.012343988315974
Pt 9.982828430767473 11.765087511020212 7.1708972852625115
Pt 8.725955461249615 11.916651589501264 9.3329638620319
Pt 8.608814364674798 9.379114754547247 9.311056704496453
Pt 9.054633775676777 8.892207983940386 11.776468983102166
Pt 10.854678760993291 6.943829844943716 7.595147130839176
Pt 8.65947377449223 13.41481161537936 11.365577264634428
