11
Energy = -46.86127762 eV
Pt 11.77048213055195 10.884039624017968 8.376370966047794
Pt 11.337866184163296 8.423108273391529 9.02313478046908
Pt 9.934214833796249 9.45757380723379 7.16134145430852
Pt 9.995788626450306 6.243514591480658 8.981131398387259
Pt 8.82477823192214 7.155210690083469 6.909420061252707
Pt 9.425317159607008 11.048464510859759 9.210371791130457
Pt 9.135975638914408 8.206274694059275 10.309971863458259
Pt 7.642409158545284 8.853452389391714 8.31930814828407
Pt 6.866036285812835 10.909647763743104 9.567818234642257
Pt 8.541891413584047 10.344186574234636 11.495114070416953
Pt 6.5909462178426415 8.540232962693988 10.711723112792416
