16
Energy = -72.41560975 eV
Pt 8.830705956793116 10.982411459195117 13.081087901573088
Pt 12.411595703374315 9.466809905280472 10.632576872747117
Pt 9.942761004208897 9.07335857212916 11.509282719628395
Pt 10.830556742801592 11.471043799024581 11.528129764763062
Pt 9.328810237873421 6.66452897619531 10.939848100130716
Pt 7.4511055659581436 9.624777589317318 11.293410569024376
Pt 8.266461482830987 12.209841299276443 10.82684336233409
Pt 12.623322374491135 11.93844256691173 9.65556871770594
Pt 7.146856107462923 7.472784113501059 9.95880444264111
Pt 10.594260749743196 8.115706640623875 9.269123237583168
Pt 11.837419532175035 10.004073273851338 8.055153537745898
Pt 10.123069590170338 11.690692093873226 9.035381907493921
Pt 7.98543737087668 10.41970326368026 8.955253737141343
Pt 8.442165452916484 8.180560048376666 7.88012257911311
Pt 9.442687463664774 10.488182098136631 6.791910508340967
Pt 10.737735851340986 8.192035487309106 6.582453228715711
