15
Energy = -65.55678925 eV
Pt 10.65060698874959 10.015734281755666 12.415721393145478
Pt 8.434403308638442 8.686622438785014 12.7754335576782
Pt 8.442642289804272 11.329882694674774 12.874171030753116
Pt 9.685155706502266 7.713608547370405 10.710577042715125
Pt 7.792168056665001 10.093492070796321 10.677470233397553
Pt 9.688561626801272 12.463088952752509 10.893324981745732
Pt 12.263757291900095 11.437504244810096 10.914693425014601
Pt 12.26205800375743 8.721671911947185 10.80072682112455
Pt 10.292288545430667 10.126829322951425 9.799336585819669
Pt 10.389530499348641 10.232505624515882 7.104857527727861
Pt 8.444785495954266 8.820582489796395 8.48144885453672
Pt 11.069335120786025 7.956355314404843 8.427391971530257
Pt 8.446654678081023 11.539896947473304 8.591856164715828
Pt 11.075657752473743 12.395457116148586 8.604010611598632
Pt 12.642891779921715 10.177523124134959 8.476380566373546
