18
Energy = -81.57765879 eV
Pt 9.387490167254848 8.980552253641628 8.51281163283623
Pt 10.456140116142862 10.803011503869586 10.657902729958789
Pt 10.962424147925855 13.315585477426692 10.124329522191019
Pt 10.717643397313505 8.112553989451644 10.776404608265944
Pt 8.934533817848184 9.135922358917684 12.596281416406809
Pt 11.622562395838493 9.760588535584784 12.809689292932408
Pt 8.15398319948234 7.897864414994839 10.487841442319327
Pt 11.207427151696496 12.38249369776364 12.950087601883038
Pt 13.23179240114516 8.853321910136048 11.046603977893554
Pt 13.014983021582603 11.445513200050636 10.601838041252519
Pt 12.082235666518601 9.551176905177668 8.86108297487391
Pt 8.61087860912536 11.720189125662351 12.290631949577833
Pt 10.745369853539904 10.243724929712213 6.74766501452053
Pt 9.466288512220967 11.895043438600887 8.512359270869654
Pt 9.860936432407529 10.734750266989534 14.410467438799623
Pt 7.900592690783338 10.564875750245562 10.084501782183503
Pt 12.914106075681087 13.744980477555481 11.753209331649737
Pt 12.065291172363011 12.095020005246193 8.078306734631788
