19
Energy = -86.95840538 eV
Pt 12.66923638610061 9.730863899492151 8.071438599476291
Pt 9.5284621264983 13.352947567790487 9.234808775174491
Pt 8.145269709102742 11.216374491768496 9.493161195200642
Pt 12.804645963909119 13.18389834840184 10.45575921343807
Pt 13.412652241412692 10.619165386782809 10.529608627467361
Pt 14.062945119458405 8.269551137897322 9.668426390307317
Pt 9.88720200744163 13.44317144882727 11.722935159718778
Pt 10.538968090426954 13.022861693312514 14.127065664843055
Pt 10.137275594331825 10.14845141360921 13.57480056590033
Pt 11.764116811639676 11.670634025050058 12.253756689907013
Pt 11.448312726777012 8.056858948110223 9.844800260518639
Pt 12.064756722722457 9.041013600598108 12.347710822799792
Pt 11.105756743574682 15.110977551678767 10.218171380453432
Pt 9.975291172409063 9.690517222472945 8.33354342080162
Pt 11.362247957094173 11.677049175287436 9.106226711767857
Pt 8.260863056925734 11.519240188702355 12.052330682479276
Pt 9.920754439134551 9.829936144503154 10.947794646450673
Pt 13.03500118123046 6.844179840771062 11.506932016163715
Pt 8.365471235400953 11.824666742041254 14.56742000619494
