16
Energy = -71.77632415 eV
Pt 11.260816732032795 12.331323874359079 8.011044312251562
Pt 9.229436522984079 10.870502867124838 7.549459979920615
Pt 10.840515928791994 9.522547352963684 9.085357440313938
Pt 11.712660180402528 12.06624683205145 11.611834480632181
Pt 9.802207791370272 11.73811704390568 10.01635411719643
Pt 12.846630891564612 11.062663584988062 9.569933921723951
Pt 7.132654752236376 9.483363219127614 7.243676206085543
Pt 10.19999537264592 11.824215508829045 13.64425502348193
Pt 8.604251188523822 10.672917968297133 12.036228359591028
Pt 12.151281027156427 8.147546223341138 10.748375521772887
Pt 13.576508065491414 9.939616349183567 11.827127794600173
Pt 8.863008823065284 8.040347676169715 8.399423559312538
Pt 10.99721867158148 9.733378918469338 12.386428191761743
Pt 11.112047233838592 6.988332217834378 8.742510324447863
Pt 6.288031639644447 9.89547001040374 11.73197450105278
Pt 7.684070302720444 9.984745477002456 9.697351389905611
