14
Energy = -60.77378838 eV
Pt 8.576080182489923 10.026628 11.790491182320258
Pt 8.639243753824656 11.31766738203073 9.416504490452425
Pt 10.026628 12.211227076551046 11.360072797483717
Pt 10.026628 8.649869673708013 7.165308759448653
Pt 10.026628 7.8420289234489555 11.360072797483717
Pt 11.414012246175343 8.735588617969274 9.416504490452425
Pt 12.245628175235467 10.026628 7.301016947274886
Pt 10.026628 11.40338632629199 7.165308759448653
Pt 11.477175817510076 10.026628 11.790491182320258
Pt 11.414012246175343 11.31766738203073 9.416504490452425
Pt 8.639243753824656 8.735588617969274 9.416504490452425
Pt 7.807627824764532 10.026628 7.301016947274886
Pt 10.026628 8.751312380222135 13.736497289606682
Pt 10.026628 11.301943619777862 13.736497289606682
