13
Energy = -54.3684365 eV
Pt 9.818490155169602 8.41761444418198 12.03802464012177
Pt 9.670041133618959 7.160497479242989 9.594272448577069
Pt 8.484553754923333 10.858785761038078 11.770201917008954
Pt 8.26918247428408 8.748620268417342 7.852888124282745
Pt 7.505899371534169 11.053660270008503 9.150067238010788
Pt 11.992287865100739 8.394156317493376 10.270137504415459
Pt 11.010482357632043 8.590343754324838 7.658545530568304
Pt 11.23073602302629 10.697199765240866 11.57667026253076
Pt 9.677608973527109 11.029913637993834 7.391667910315553
Pt 9.82598737267 12.289796189129213 9.840381602611162
Pt 11.948681285543671 10.804389662257016 8.936124769131803
Pt 7.548576323809273 8.648539285462904 10.494008089629936
Pt 9.748854255946473 9.725740257483515 9.715718135490286
