12
Energy = -51.37672418 eV
Pt 10.26262440691397 12.582891486186071 9.979991
Pt 11.097148596146456 10.578060002899367 11.403159906257216
Pt 8.993848859105942 11.819572304205424 12.358309505341422
Pt 10.966133140894057 8.140409695794581 7.601672494658578
Pt 8.993848859105942 11.819572304205424 7.601672494658578
Pt 8.862833403853546 9.381921997100624 8.556822093742785
Pt 9.697357593086034 7.3770905138139256 9.979991
Pt 10.966133140894057 8.140409695794581 12.358309505341422
Pt 7.990259731834633 11.429910426287286 9.979991
Pt 8.862833403853546 9.381921997100624 11.403159906257216
Pt 11.097148596146456 10.578060002899367 8.556822093742785
Pt 11.969722268165363 8.530071573712714 9.979991
