18
Energy = -80.91647771 eV
Pt 9.526718643567433 10.600997396479986 11.915458584747482
Pt 12.509462243120684 8.382847452497936 9.5243112043005
Pt 9.94367142000314 8.123471349927037 9.481467491206232
Pt 8.573928321443189 10.787881021910126 9.304571621849899
Pt 13.3884558565279 10.624688261661024 10.158472586543057
Pt 8.343217583538218 12.733473992651257 10.889833911896382
Pt 11.114930129833976 8.483014338733911 11.741699886502014
Pt 8.274501586677639 7.232812991616222 7.686486951767528
Pt 7.272171296897787 8.534182467980596 9.61908640888984
Pt 14.236268671291546 12.968716582369389 10.628466714287594
Pt 12.083358639343539 10.741744390187351 12.319140090702195
Pt 12.998596176640007 13.040762060522479 12.816463811398064
Pt 6.956407002483137 10.387412210752203 11.40926145776308
Pt 11.089122279162266 10.657306573236655 8.672708984986311
Pt 10.718546036272818 12.98309755623448 11.667988286232944
Pt 11.980658466681135 12.830203607734985 9.468476970127252
Pt 9.372968373756105 9.491342309620102 7.241585824977202
Pt 8.535221381644458 8.209699877013175 11.883033449629508
