12
Energy = -50.94478008 eV
Pt 7.703581179581745 8.174287982802301 5.402212391813238
Pt 7.009755505454598 10.505015344825765 6.275339779208547
Pt 9.405781627880621 7.0332641277204715 6.981843005923843
Pt 9.257244038703277 9.704637716367598 7.308123742450731
Pt 11.15465400474647 8.310741503878049 8.463085275900163
Pt 7.13110678177924 8.191229807311043 7.941662761801154
Pt 7.262604695719316 10.739145356245407 8.841525728338691
Pt 9.414220055451866 9.763583489352301 9.975658892183823
Pt 6.982833360411502 8.726225200635485 10.503093038029165
Pt 8.98025995363249 7.138097206792594 9.564704442658567
Pt 8.859126191870043 7.867199582341924 12.064078743630915
Pt 11.207428543263946 8.215168620222315 11.047268136556273
