12
Energy = -51.57841901 eV
Pt 9.6156724202186 12.09316694462565 9.470131
Pt 10.566077657438642 10.120401397979984 10.858628899451347
Pt 8.366449468468348 11.339894817408842 11.650293535297253
Pt 10.573812531531654 7.600367182591155 7.28996846470275
Pt 8.366449468468348 11.339894817408842 7.289968464702752
Pt 8.374184342561364 8.819860602020013 8.081633100548657
Pt 9.324589579781403 6.847095055374351 9.470131
Pt 10.573812531531654 7.600367182591155 11.650293535297253
Pt 7.106120299386803 10.601784774235956 9.470131
Pt 8.374184342561364 8.819860602020013 10.858628899451347
Pt 10.566077657438642 10.120401397979984 8.081633100548657
Pt 11.834141700613198 8.33847722576404 9.470131
