16
Energy = -70.87369905 eV
Pt 10.747590502357056 9.741215382596677 12.291347080093557
Pt 8.42247695937689 8.516839952475573 12.635333108152363
Pt 8.508613830851335 11.118324451363405 12.786699233228452
Pt 10.8003624081336 12.354582956557724 12.763752129425953
Pt 9.910384551342828 7.71580080124198 10.62691482415637
Pt 7.827233151907962 9.929683796397587 10.510404773392557
Pt 9.348312767244078 12.380947463077389 10.592077322423293
Pt 12.270318859148492 11.430909103897012 10.78931925264517
Pt 12.464165251112254 8.706567196160979 10.592704396190777
Pt 10.307736731494527 10.114459780819576 9.673949443751859
Pt 10.328943222065826 10.2072662425259 6.972705135344589
Pt 8.565119831484353 8.660196819691528 8.309350248838955
Pt 11.21074229786254 7.986324539255574 8.306883952589793
Pt 8.30694517827731 11.409586766767786 8.359018820003401
Pt 10.915924834646273 12.380867072066993 8.461364837966476
Pt 12.6636215176661 10.287338711751733 8.40245367885599
