18
Energy = -80.64159184 eV
Pt 12.98594552482713 7.394765839660386 9.194338307901443
Pt 13.696264335334085 9.711180022292968 10.269604325337884
Pt 11.418943110746653 8.457836535970145 10.976795219947919
Pt 7.846427974296855 8.425564581025025 12.471443585508275
Pt 12.090209981493993 10.9767691814577 11.921209294861258
Pt 10.093014114777276 9.53181818862988 12.839447876261449
Pt 10.610227340849603 8.31915421137993 8.504510419201903
Pt 12.84421661602272 9.529330799242675 7.7019489547242195
Pt 8.923532450435566 9.244098712752773 10.262125028595996
Pt 6.962001619252452 10.695475498652538 11.83467416648233
Pt 10.820818346354807 9.465118954242318 6.158098340028103
Pt 11.588272656972732 11.017676796622691 9.392438629185326
Pt 9.08531407695231 11.852685989368515 12.452440387909663
Pt 11.271533361380584 12.95613163993107 13.171279058549864
Pt 9.382665350721899 10.60335184047446 7.953065737128985
Pt 7.298644009744401 11.1769889499815 9.367158616104437
Pt 9.512635199872898 12.390867102012557 9.925142012042725
Pt 9.700020111204827 14.244251321242748 11.641540286150224
