19
Energy = -87.75130341 eV
Pt 10.957604409173907 9.507011694102822 7.232194712275645
Pt 12.86071620384533 9.827517611068668 9.158964386937482
Pt 11.074328424983662 11.875743326605244 8.33426590953976
Pt 11.034202872327361 8.160031562745175 9.403019567359534
Pt 12.346509449861658 11.922502322543194 10.534411832005029
Pt 11.16545754660243 14.066553907249638 9.669485476606761
Pt 9.264572497646144 10.186838188604616 9.083409867272412
Pt 9.845304381617337 6.123231021042171 10.447658448510898
Pt 8.837465363237042 12.711264045141728 9.718648681729055
Pt 9.342334851657867 14.604658337532221 11.468143290396785
Pt 11.616931259406922 13.663116598269502 12.356282844249522
Pt 7.711266523839902 10.661520392929756 11.04603463270983
Pt 8.361300601250145 8.199818560105777 10.475181043117773
Pt 13.549814597723076 12.000604255923404 12.834625069067881
Pt 9.706670706245639 12.027699542745077 12.022236348343684
Pt 12.875022024917945 9.718524990132053 11.804958466854679
Pt 11.496392213613614 7.5944192006433635 11.80729000270752
Pt 9.8264390113161 9.44724118756443 12.120340647637052
Pt 11.323552381632613 10.897588575950472 13.678734093577248
