14
Energy = -62.9397351 eV
Pt 8.638482 8.638482 10.719904443051554
Pt 8.638482 10.719904443051554 8.638482
Pt 6.557059556948444 8.638482 8.638482
Pt 8.638482 8.638482 6.557059556948444
Pt 10.719904443051554 8.638482 8.638482
Pt 8.638482 6.557059556948444 8.638482
Pt 6.843359676062088 6.843359676062088 10.433604323937912
Pt 10.433604323937912 10.433604323937912 6.843359676062088
Pt 10.433604323937912 6.843359676062088 6.843359676062088
Pt 10.433604323937912 10.433604323937912 10.433604323937912
Pt 6.843359676062088 10.433604323937912 10.433604323937912
Pt 6.843359676062088 10.433604323937912 6.843359676062088
Pt 6.843359676062088 6.843359676062088 6.843359676062088
Pt 10.433604323937912 6.843359676062088 10.433604323937912
