14
Energy = -62.58280134 eV
Pt 12.543143318678865 10.271269270008306 8.347438705798572
Pt 11.55210378203384 8.389158099411592 9.694378648800273
Pt 10.442793207692537 6.709111232590013 11.239399926289998
Pt 10.042586541270962 9.097248077042783 12.012015274402986
Pt 10.756275042115346 10.161791951037959 6.629293083913675
Pt 10.80161860028067 10.970884914935429 10.045511202308155
Pt 9.699632506412497 8.321565561787047 7.986425103886469
Pt 9.092436726697098 11.471216919621826 11.838095847761643
Pt 8.451626029279488 6.950616678534781 9.70329288515528
Pt 9.060887461182029 11.109635593672518 8.233290802129353
Pt 8.168222414550415 9.343598836656989 10.417872476222897
Pt 7.29618281529245 7.514281649805225 7.507028194783859
Pt 7.28255770201939 11.853401241445948 9.907311984314639
Pt 6.780788438876899 9.80707455983249 8.409500450614695
