17
Energy = -77.05645698 eV
Pt 9.18465808336423 10.971347402331977 13.42690383811497
Pt 12.118323148279964 10.283402776246122 7.985083297983687
Pt 10.615219231614553 12.59506395837767 11.5457431952926
Pt 10.721749880309403 8.806926050665544 14.251749281301732
Pt 8.91920004196084 10.841808379056802 10.796262077833086
Pt 12.065157641295452 8.454485775273081 12.046438939914541
Pt 7.911464530164586 8.609625985488163 9.92063391919594
Pt 10.424498416750069 7.950659441785442 9.931612694548695
Pt 8.635422781570147 12.21580557177972 8.68087793328043
Pt 9.658316850965056 9.773862422638325 8.339846652954643
Pt 12.12994306028 10.67877036708425 10.567080794711863
Pt 11.73974158261399 10.910828002006085 13.09213009060257
Pt 11.18309802485663 12.589274662300925 8.94386467974928
Pt 12.903911430289414 8.403798533196822 9.57302793567896
Pt 9.257735848507904 8.678272892626723 12.150792893080666
Pt 10.420678130372131 11.619497817463762 6.609576422090166
Pt 9.501622828621 14.24856361628438 9.960330106513483
