18
Energy = -81.79803727 eV
Pt 9.9228465 9.9228465 7.734935919353562
Pt 9.9228465 12.055126520575046 12.414815039218427
Pt 6.784416488853952 9.9228465 9.966736050131054
Pt 9.9228465 7.2805915009455004 7.94123121232632
Pt 7.658046681616332 11.25653243078697 7.86070751450634
Pt 8.626678365447336 11.828527153861272 10.185783008717912
Pt 8.626678365447336 8.01716584613873 10.185783008717912
Pt 11.505133545401389 9.9228465 11.999126656237683
Pt 11.219014634552943 8.01716584613873 10.185783008717912
Pt 12.187646318383672 11.25653243078697 7.86070751450634
Pt 12.187646318383672 8.589160569213032 7.86070751450634
Pt 9.9228465 12.565101499054496 7.94123121232632
Pt 13.061276511146053 9.9228465 9.966736050131054
Pt 9.9228465 7.79056647942496 12.414815039218427
Pt 9.9228465 9.9228465 14.046521114883792
Pt 7.658046681616332 8.589160569213032 7.86070751450634
Pt 11.219014634552943 11.828527153861272 10.185783008717912
Pt 8.340559454598619 9.9228465 11.999126656237683
