17
Energy = -76.26550261 eV
Pt 12.959143499832889 9.091632688504552 11.539615427649416
Pt 9.103915017317114 11.44063840950036 12.924636877922259
Pt 12.349269891498016 10.286713035465333 9.16253385815558
Pt 11.982945803699094 12.75129008434019 8.699551466732803
Pt 9.87590005808141 12.510698094391191 10.116545308178406
Pt 10.99940449321923 10.651680897070992 11.408708147591614
Pt 7.618530972966687 11.563960228084317 10.839835205004434
Pt 12.6857662140719 7.70937748730001 9.388936420009486
Pt 7.670261564855527 13.418371352428649 9.088774039756254
Pt 8.781873100578732 9.260641747060358 11.581198138987588
Pt 12.56365179706827 6.585804010587589 11.750199929567195
Pt 10.118812183756445 11.004875335846608 8.043901670185896
Pt 10.265243684892544 8.57467137672369 9.123546596891586
Pt 10.174584417695021 7.055019142006063 11.170237748502128
Pt 7.873189351674326 9.783435640583647 8.941423608962598
Pt 7.805437103915321 11.684225229919447 7.255310371176563
Pt 8.012686920080997 7.387543808531328 9.892767943257722
