11
Energy = -47.30063669 eV
Pt 9.993945533916266 10.345392426946772 10.334848539099443
Pt 11.315066045099373 8.209535058739347 10.649428365042867
Pt 6.672499171855878 6.946423140899436 9.362880609229126
Pt 7.194240983448977 9.16653056810105 7.868543310938263
Pt 8.939813750620033 7.3676217803125335 7.930032049190906
Pt 9.132394979579201 10.810416134217459 7.7520371800043755
Pt 10.967122508474155 8.827447140108863 8.214750740854125
Pt 9.046544920238352 7.039623090089063 10.423741543333874
Pt 7.9582872995998235 11.763451490679032 9.821434678686598
Pt 7.760612695912021 9.198814018021633 10.323419591184514
Pt 9.710856138478237 9.016129179107013 6.010267446879859
