13
Energy = -57.32280474 eV
Pt 7.638859129384637 11.784645711271734 7.845061763991743
Pt 7.3983120884660645 10.796531795754891 10.132718917244738
Pt 6.937511043033258 9.4230429573053 12.203759433820228
Pt 10.075038208705127 11.20831664499001 7.806441938521503
Pt 9.732524084476657 9.900392475570957 9.920662746778977
Pt 12.385180620279902 10.244695944647 7.443991655582404
Pt 7.830946066977995 9.187249224337924 7.631146155647675
Pt 7.029572354211975 8.197366069224334 9.89794544282325
Pt 9.036891569191239 8.140340249617305 11.568556400699617
Pt 9.026492221386704 7.128900152732669 8.648863651760054
Pt 10.314336400415012 8.697444097803626 7.052229221251716
Pt 10.759791611958345 6.63877617590798 10.522089262571198
Pt 11.740142042197597 8.557895941520515 9.232130849991673
