11
Energy = -45.78989556 eV
Pt 8.259500688256923 9.330460387574036 10.981256364907752
Pt 8.261153226057704 9.325232699004754 7.983957994688501
Pt 7.327724254710619 11.322284783013115 9.479614819246887
Pt 10.188182233643968 7.8812063772155 9.486185439151598
Pt 9.796993266032747 11.228718028006304 9.47987418205128
Pt 6.050133268544063 9.057404441544167 9.481986968460363
Pt 7.8230848938733635 7.163799787967215 9.485423960529326
Pt 10.832698763185736 9.666455780380792 11.247292995533142
Pt 10.834738629582974 9.659466942194864 7.71925656280359
Pt 12.61619428153556 8.544259217357883 9.486196107579117
Pt 12.32210162272318 11.133216555740969 9.481459733195559
