12
Energy = -52.17714486 eV
Pt 7.246943321272606 10.200419193949706 10.898214572274796
Pt 8.701858553739106 8.13266512754012 10.797546903993611
Pt 7.45217705428991 11.116598296077141 7.567243231108472
Pt 9.211520014071288 10.763401009114297 9.376407335030004
Pt 10.745510887739728 9.642188653372182 11.076837050301554
Pt 6.973549464431158 8.882216881806519 8.761055974684384
Pt 10.955790413019583 10.493991585640675 7.532660186433624
Pt 10.84072973556695 8.346133217836623 8.856661001668636
Pt 10.331485017306008 6.262297295677852 10.235585606237683
Pt 7.019632811607581 7.44562856936229 6.653339955221001
Pt 8.94885251790733 9.087473691504332 6.9389866185594835
Pt 8.674243224427425 6.72927949349707 8.407754579865294
