19
Energy = -86.84627574 eV
Pt 8.815533587604085 7.985739351186148 8.332932324253802
Pt 11.792762565015936 9.489536448747382 8.544998449042389
Pt 9.101958454040663 12.144463612399802 11.66794632107168
Pt 11.630775936171318 12.000985562502258 8.809234191963569
Pt 12.922716761768074 8.583290857361503 10.900615701204174
Pt 10.440946403445038 13.695644817091994 13.210220840399383
Pt 11.251818201186486 8.81741657009166 13.097280334506797
Pt 13.736932293927262 10.795093523993964 9.774034497039167
Pt 11.222236170477089 14.539178175317186 8.891736639640902
Pt 10.435990683802753 11.17300241825466 13.679481599975468
Pt 9.378280056237056 10.452463609637602 8.619783941624444
Pt 7.323278401685047 11.43522133676497 9.980531746223168
Pt 10.680057690148354 7.513351670055695 9.937926181401695
Pt 11.81983377661961 6.540928206585479 11.98053060739682
Pt 12.150231000032864 10.950680946543851 11.806735440995787
Pt 11.698029586685477 13.305947108092573 11.078309674047505
Pt 9.192518563542448 13.057626610320536 9.253834559063476
Pt 9.88518219143728 9.71073846779937 11.059428688015107
Pt 7.555586789216844 8.904147320021629 10.346353927347758
