10
Energy = -41.82683247 eV
Pt 7.052271680134862 6.8476198785986755 10.535321584495833
Pt 9.150280404699613 8.599406587850812 6.8344372033004905
Pt 9.380608658634992 7.9494583301609225 10.852847905043696
Pt 8.659998311877715 6.834836886505257 8.570896613022272
Pt 11.618500734508473 8.928230531059105 11.136465056550968
Pt 10.534132928377524 9.19673552448436 8.924291845859825
Pt 7.522600765257318 9.045315331747588 9.309168364228917
Pt 6.599028358913612 11.33430788561679 9.224184363824973
Pt 10.882688952974412 10.446244879179288 6.703800796777645
Pt 8.706731291243885 10.924686251419484 8.015428353517914
