10
Energy = -41.21262297 eV
Pt 8.503128333574198 9.511060278490698 10.876731260132859
Pt 8.503309600455275 9.491766691944136 8.126181062405498
Pt 8.031741088105415 11.703027476614968 9.484650008912242
Pt 10.505077245092387 7.972571035256497 9.494066540351827
Pt 10.502781559491986 11.032880341529816 9.508906212764783
Pt 6.347035704060019 9.495982615795349 9.501457746340103
Pt 8.034833398032283 7.299210892713346 9.5188544540045
Pt 10.974969045640432 9.485032436002763 11.570839131134763
Pt 10.975140034396597 9.520219314026914 7.432178892326106
Pt 12.637458893817598 9.503724014959442 9.501609399625782
