13
Energy = -56.43530342 eV
Pt 6.253599303345073 6.703537203026467 9.142167769014378
Pt 10.4053416486176 8.459831701775402 11.373615516724733
Pt 5.8328798012387555 9.262275680411438 9.280823073056414
Pt 8.435640514230764 6.803845194184964 10.543470465500056
Pt 8.118630829643545 9.317427777319883 10.47981788356563
Pt 8.044631253152037 9.850342937463898 8.010790895209903
Pt 7.8322559193728996 9.852209806765257 5.418557347482378
Pt 10.350350288026554 10.339498298222427 9.180785115903893
Pt 10.400064746162762 7.738920494588944 8.91461395065167
Pt 8.559313271914677 6.430510752235346 7.932406593090462
Pt 6.577731866474669 8.110557708617824 6.940538667215571
Pt 8.699357823238573 7.357055405990524 5.579691306346004
Pt 10.117132112486344 9.151647361939732 6.797276623752987
