16
Energy = -71.29878641 eV
Pt 11.063063596527622 6.512541228229151 10.133400626270872
Pt 10.314335894734198 7.961879154856434 12.082007060604404
Pt 8.999878656255538 7.395329667100626 8.93336987063743
Pt 8.21755319399396 8.79195501711546 10.886539916001038
Pt 12.2167682194662 8.502540309060144 9.033545392136068
Pt 11.82278057288147 9.78747605145254 11.230114203620657
Pt 10.102680397769893 10.292143095422794 13.202257554904888
Pt 6.9040389964347035 8.867537196508723 8.524628434826745
Pt 7.855242943128066 11.022138130492067 12.093503249543579
Pt 10.052672115145297 9.801014438350633 9.289621671982976
Pt 12.827931441125175 10.141373071651877 7.286766822683791
Pt 8.647906656480941 10.288372119221574 7.2069816209553785
Pt 7.847938826594989 11.200251534313116 9.447420424513458
Pt 10.128690293004714 11.89492956992326 11.11895482790307
Pt 10.868595724553183 11.602425508233228 7.715954480781093
Pt 9.381644202445074 13.189815638609385 9.066655573175307
