19
Energy = -86.916832 eV
Pt 12.727489545967506 14.122492978037881 10.019520567121472
Pt 9.4960166593289 9.236179334478523 8.944737731856282
Pt 10.918220188214729 9.283103640606047 12.95560115957237
Pt 11.930455594412708 9.56866632033413 7.93960803307341
Pt 8.50064355143385 8.665826718178574 13.518254466583647
Pt 13.124736168222025 10.404522432993922 13.260036679975888
Pt 9.659394876838489 7.708193681414944 11.130675411029591
Pt 11.605135474860312 9.302378828026443 10.455440416060801
Pt 8.292349395940187 11.672462966606796 9.474048089595906
Pt 12.559076702854343 11.82969572196329 8.89868544508622
Pt 10.10826707534348 11.496936077451101 7.696186295092633
Pt 8.09284699266493 9.695694867478409 11.171000821788766
Pt 13.91936591624509 10.207964287593102 10.840713442874073
Pt 9.975035688487838 11.494347948747198 12.057920426204602
Pt 10.440936885204254 12.968979537178 9.896236254258453
Pt 7.872777386078326 11.166399911785822 13.472679419614225
Pt 6.613391777625466 11.793840671700801 11.344972353359061
Pt 12.383611605670827 12.230054525574939 11.698015220938553
Pt 14.408468861135356 10.110369652402929 8.361208004665034
