17
Energy = -76.70781777 eV
Pt 13.703209216542609 9.443571220490933 9.716679600390886
Pt 11.585410150177381 9.515585022836959 8.19211426922732
Pt 11.368084076321644 11.018070235023451 6.268664449471285
Pt 10.686909098322069 12.328167253966988 8.237620703378093
Pt 9.375927745681576 10.539528224016202 9.627153516534733
Pt 11.49911588486474 12.33038812577177 12.428318957071241
Pt 8.915254749103546 12.998418184271474 10.112819332326941
Pt 9.35826142325961 9.694788206893561 13.963429820564677
Pt 9.082370322404426 11.42414217863502 12.100105731274548
Pt 11.511514878266114 8.802800701089094 10.858883894504201
Pt 11.758728151750944 10.556752233957994 14.256594036418853
Pt 9.085399286775019 8.765277288356847 11.602943800163212
Pt 12.391257100233824 11.614688639568403 10.039749038076282
Pt 13.176485991447525 10.194425516065447 12.15341292604447
Pt 9.728425577669169 8.002707549141812 9.221447282919817
Pt 11.315730869725042 13.884828783206844 10.396383303199148
Pt 9.818267840047216 12.329956390300257 14.425174435104292
