12
Energy = -51.54090621 eV
Pt 8.365993813943772 11.245085572196228 9.299671074916208
Pt 8.365993813943772 8.52783942780378 9.299671074916208
Pt 7.6044507201646105 9.8864625 11.371594870160482
Pt 9.8864625 8.448595769222623 11.329551617952415
Pt 11.406931186056227 8.52783942780378 9.299671074916208
Pt 11.406931186056227 11.245085572196228 9.299671074916208
Pt 12.168474279835388 9.8864625 11.371594870160482
Pt 9.8864625 11.324329230777371 11.329551617952415
Pt 9.8864625 12.406147959826283 7.62662420650692
Pt 9.8864625 9.8864625 13.371546422962696
Pt 9.8864625 9.8864625 7.4117778451713905
Pt 9.8864625 7.366777040173715 7.62662420650692
