16
Energy = -71.32537911 eV
Pt 12.36025688740257 7.301210240511941 9.456392347251658
Pt 11.30794839990542 8.563015181267108 7.561773951441081
Pt 13.026755785891151 10.566243187141588 13.02210281073242
Pt 12.416104777162772 9.333582410061004 10.981766520569908
Pt 9.729898759998257 9.820078526580414 6.043810329872295
Pt 10.211582049770218 8.014852049272045 10.646884652146419
Pt 10.61408013625595 10.130333177640711 9.330374974731727
Pt 11.101224655154825 11.533999586280279 11.726859375565516
Pt 8.35975802317306 9.635392597717502 8.207243647408735
Pt 10.212478468425681 13.13216176197697 9.830294312221394
Pt 7.804511346515541 7.7557814117338975 9.786594592095684
Pt 8.36603011977659 11.281316355251633 10.193876391862023
Pt 8.881456554201131 12.833448572136913 12.106744478987618
Pt 9.795576969321754 11.833727971303643 7.644360794616315
Pt 9.307429084602695 10.755868530178272 13.49372680286974
Pt 8.283783347594285 9.287863806097379 11.746069382779195
