16
Energy = -71.67625451 eV
Pt 9.827030730902749 7.15589925833876 11.980955054081342
Pt 13.765975616408815 8.41668395885788 8.24132332823821
Pt 12.985581822856664 10.851096348466369 12.01273416243005
Pt 12.365602892106422 9.731505958167135 9.802760657319928
Pt 11.321369106685326 8.460499333563504 7.869175215866117
Pt 9.51127885803342 8.146780167542735 9.67671763046225
Pt 10.777393314606536 9.535896994210518 11.817770076738032
Pt 8.119708217098667 9.008631191766101 11.843139073262456
Pt 7.352263182591842 9.759556071443942 9.367280803181876
Pt 10.26386198135177 10.989600967395043 8.0271836039367
Pt 9.035532179332048 11.506262201460814 12.33987588635623
Pt 8.808244260350504 9.026553249050439 7.392100300484376
Pt 6.654786680487105 11.114844841357797 11.421675381231168
Pt 11.031403178209867 11.810157690412206 10.671493222823933
Pt 10.494545007068696 13.43611653577075 8.780917516612378
Pt 8.57801508436854 11.94250734465498 9.647490199434356
