15
Energy = -67.45757651 eV
Pt 7.600953143457016 8.91848870609155 11.314441285328527
Pt 9.478190397533067 11.091955994766181 8.241832815906443
Pt 10.047252274880588 9.045465380747325 12.564270605553626
Pt 11.908620781299016 11.645071271745174 8.404571922551575
Pt 12.243707416087014 8.954998975407639 8.866948322180257
Pt 9.970479538291185 8.821753130350624 7.3253060951171305
Pt 12.059782453980228 8.155253419817779 11.279721857544976
Pt 9.541073671159644 11.742889285031936 12.395637430210721
Pt 11.372762674854506 10.61642348944621 10.811325087498915
Pt 9.836547342550439 8.374292170619114 9.954992494679008
Pt 10.357287490235192 12.863311550862003 10.153877136887122
Pt 7.720383413975432 9.021175611129834 8.68444391674191
Pt 8.214153201267147 11.146211276915643 10.365566767639416
Pt 12.144696435346072 9.931952808956428 6.49145289332022
Pt 7.938187265083611 10.104834428112724 13.579688868840442
