16
Energy = -72.26378748 eV
Pt 11.723826587968748 10.128111204704211 6.148965877661741
Pt 10.577871457627852 8.354531577160012 7.630719721311569
Pt 10.583642611779151 10.983774676890551 8.327516841572095
Pt 10.58052034954875 11.535633410350872 10.844772802001541
Pt 9.206168708721348 10.128424722170886 6.3215548081201804
Pt 11.50598991981236 6.712240622867759 9.38149147328164
Pt 11.273796631689821 9.127258859401088 10.227353443714817
Pt 8.30915500427884 11.180778909071648 9.486925957570358
Pt 6.942190757509951 10.542096777652924 7.400868558118226
Pt 8.99229739418087 9.577908009444254 11.414887357589356
Pt 9.99965155021373 7.113956353411359 11.574305179700605
Pt 6.886204116372048 8.789053006620499 9.286168690672925
Pt 8.95434758071589 7.272065243492869 9.254807975723944
Pt 7.392800448896902 7.624541132408352 11.580218671744019
Pt 6.526845343619833 10.257614119065455 11.360661040883642
Pt 7.8133163488147 7.940636187038193 7.027406412084155
