13
Energy = -57.20539463 eV
Pt 10.014807614858592 7.321721580793349 6.318812829357618
Pt 7.938589371014358 8.69407237332286 6.9733965668744755
Pt 11.103106141573784 7.212782130380333 8.642445025316006
Pt 7.4946945917348735 8.841343265064149 9.522587959298477
Pt 6.5617454937869555 10.62838001422636 7.7999962349676215
Pt 7.784306372649651 8.991635415546188 12.061824242162096
Pt 9.582441441212518 7.8601337772196525 10.632725059668427
Pt 12.238750585139865 7.998154387977238 10.738889546682453
Pt 10.17390219173596 9.367810808801018 7.8210045357751445
Pt 8.664675348236582 11.062746048651318 9.183540262461548
Pt 10.797699090150884 10.057931035600276 10.320885122621165
Pt 8.997336963157924 11.190538557044686 11.698746120828188
Pt 10.500138707434235 12.624944518058884 10.137340406672834
