15
Energy = -68.02466146 eV
Pt 12.64115905036042 10.976667855931852 8.191292510859416
Pt 11.996279037279029 10.827317557800109 10.607324052785144
Pt 10.211437040078009 11.324099618251772 7.580239230327354
Pt 11.193896468239377 8.893369511159827 7.861909331630144
Pt 7.811502823662619 11.138189013417499 6.889454406684413
Pt 11.31294844685704 9.60394167374285 12.707948660845657
Pt 9.549398502018176 10.982497716720397 9.968074992916774
Pt 9.562597224166606 7.009959481382796 7.595393843503139
Pt 11.014768380421598 8.507764453579396 10.350631302445533
Pt 8.899546927898557 10.0202957546034 12.183745622412312
Pt 8.201181341900849 8.996443662947806 8.347810083207461
Pt 7.10476814055625 11.06982592820545 9.309317198372986
Pt 9.73524713681627 6.369940388316966 9.986377864819646
Pt 6.47734057367867 9.94993340940919 11.459921391920181
Pt 8.007061438113098 8.048886506577258 10.679692039316539
