12
Energy = -50.5702946 eV
Pt 9.239372458718163 9.046691880317182 6.371259305477431
Pt 6.930897805475598 8.164642224696717 7.2518120366966645
Pt 9.866442439552472 11.343351745917861 7.486068696192502
Pt 7.331029382737808 10.714454402358419 7.2661017132075765
Pt 9.628993729216997 6.991602842331638 7.759068009638016
Pt 7.320354593976817 5.766671931572883 7.9527776674942094
Pt 9.330846490786763 5.115319985379234 9.605144804972971
Pt 8.129109552782419 11.59876244527728 9.598424233427817
Pt 9.436161812056211 9.40138693911652 9.148475160593076
Pt 6.658113348142823 9.428056765660635 9.532320200797788
Pt 10.484853048474616 7.362138982736371 10.227922142301944
Pt 7.854013340185958 7.277107856741614 10.010814031306488
