29
Energy = -137.11613837 eV
Pt 13.324120666047556 12.201998257788981 15.215864055520614
Pt 10.707947085711242 12.394801311218652 15.570569980774785
Pt 14.04617665072033 12.379903915168518 12.6995775144659
Pt 14.237721944017904 10.139202982331884 13.817361597621439
Pt 11.948549735033202 13.669266615009208 13.532644440055542
Pt 8.319374533832892 11.551459924512349 15.226698679489775
Pt 11.639729035733305 10.3334550370722 14.436312227820322
Pt 12.94344979647488 14.203294123046591 11.190209346764776
Pt 9.261832103934113 13.180377593961438 13.512862563913414
Pt 10.462547430203335 14.673761683200953 11.669675091014334
Pt 14.701120060825861 11.432926145303322 10.455608158721736
Pt 14.95109913687996 9.217769629163175 11.563492131886722
Pt 9.270280266624548 9.626471485492957 13.867624643141625
Pt 12.150747768724214 11.80564558640326 10.289584478491381
Pt 14.863149702802163 13.736310406929963 9.491763873128175
Pt 10.517340784618051 11.23584889808377 12.223684641698433
Pt 12.378847966058217 9.220914954824563 12.142585014990418
Pt 7.938509779514776 14.081365915029197 11.569163310078824
Pt 9.688901599613315 12.71095175456405 10.223673265879002
Pt 12.494213687178876 13.828487485917725 8.672638256044403
Pt 10.093112716174593 14.292238994163942 8.209013571171376
Pt 13.77149185277158 6.994151375847635 12.12692173725499
Pt 9.936100821621828 8.463581901824302 11.730257106446745
Pt 10.138857765448936 10.086426154685016 9.758807502893427
Pt 11.865095070977606 7.320313566646679 10.484783611030863
Pt 9.503378426898333 11.861585267088536 7.8407690915662895
Pt 10.897273278890633 8.096514499253697 8.362740854424008
Pt 8.984070879649963 9.39617151811359 7.481472713888835
Pt 8.206818239986704 11.106661804324059 5.875499326791591
