20
Energy = -92.85155575 eV
Pt 14.488926138406807 11.163200552932532 11.356068867725263
Pt 13.26680686017319 9.32699057717116 12.585589074966897
Pt 11.92350771553248 8.739637059220206 10.53073245073928
Pt 13.202797697842927 10.480154877153907 9.259053268064205
Pt 11.675083914851355 7.353947962872511 12.87169666271439
Pt 11.837877563316615 9.701954613110326 7.310468098913786
Pt 10.011823953446722 8.743702330677007 8.84013049503658
Pt 12.232479330401278 12.34228429426743 10.961083360752202
Pt 9.536798952166006 7.856188155762315 11.237959180803587
Pt 11.017741902792405 10.576302988477064 12.328020365116211
Pt 7.6612442505052964 8.97613351425643 9.756432459439447
Pt 9.31663641437342 10.473529184505834 7.112991550730071
Pt 11.07804481993226 11.899416593006126 8.64548823936596
Pt 9.766906873246363 8.824291620734302 13.682592209158969
Pt 9.671169580276276 12.4681126472381 11.023613852148856
Pt 8.358128417330509 10.148316880527824 12.02817288874263
Pt 9.298616139671163 13.695021701243354 8.749160221416975
Pt 6.843511800832551 10.01416021970149 7.549549853708425
Pt 8.157572219127042 11.45461241759694 9.211254392197043
Pt 7.103548891716196 12.21126524548557 11.409165944199948
