26
Energy = -124.42775788 eV
Pt 12.757952433656843 9.011528158952673 9.56214871112301
Pt 12.70272645630928 9.828116480937798 11.989514270972569
Pt 13.3602499883282 11.654450684886529 10.198065006544219
Pt 10.21902536226424 9.746691352926673 13.079963738239542
Pt 11.305553904417163 11.955180651674816 12.084817168982173
Pt 13.17377024197771 13.313058297936822 8.16694823382487
Pt 10.666680278712494 7.468612501904572 8.68816336182398
Pt 11.239102472360143 7.6867830839186695 11.289761599435748
Pt 9.30558748488445 7.287644316781945 13.023543991881587
Pt 12.947493473074992 10.804914011267725 7.514639452296931
Pt 11.509389036266908 13.810779315454118 10.102510779601976
Pt 10.91988242195578 10.922631926280868 9.666862943535952
Pt 9.791083360157701 14.072208552855901 11.981797917639547
Pt 9.324385178899075 9.326437616983014 10.669918703497606
Pt 12.543965515385938 8.321809674285205 7.042191664837819
Pt 8.79239699576833 6.761254418918029 10.379347532136743
Pt 8.600227689196867 11.73806334492016 12.335378932514917
Pt 10.703501568946567 12.566679071974391 7.658092839583232
Pt 7.506178261536243 9.363121794331006 12.568003977303148
Pt 9.00562037247377 12.77752994532869 9.8343504378791
Pt 6.876952372615869 6.766879973204169 12.2655492826395
Pt 8.290300912272237 8.648277596901426 8.393356233439768
Pt 10.413252664720378 9.812941879532277 7.305763658867968
Pt 6.454604234941475 8.320501482879283 10.223467661960223
Pt 7.263982314347097 10.813756205859837 10.21511475141268
Pt 8.398085269852404 11.292097924425992 7.832677413347214
