22
Energy = -102.87617024 eV
Pt 7.748394617022903 13.23802682187179 12.197165115712293
Pt 8.648513523659515 12.446636675929575 14.406085635700007
Pt 9.379485890012564 9.4151793211107 10.351722698183421
Pt 10.029548502532485 12.713318575795503 11.278553047213041
Pt 8.584608341656693 10.071479920256275 13.459256353709053
Pt 7.544526094710929 10.843053582924899 11.32437695649791
Pt 13.320717243487703 10.35411385069727 7.511299141143462
Pt 13.588603395455534 12.032302964845496 13.754013288000191
Pt 12.60373985020169 12.558487457311404 11.49919972200713
Pt 9.632263651214931 7.940659291884003 12.413973376825426
Pt 15.698379412890976 11.18580254775267 12.540281064476343
Pt 6.799535356593345 12.803243783783428 9.836382107141162
Pt 11.279962973377527 10.326237797508357 8.995158304693648
Pt 11.012106627959591 10.08380509538816 12.86134743547049
Pt 14.840316083393306 12.161162037853927 10.390052037992316
Pt 13.781243413127344 9.892471003891385 9.968906769700354
Pt 11.060116227323956 12.51872497727261 13.663750285542283
Pt 13.86159323952609 12.720790561392723 8.152313535865783
Pt 13.536522481960128 9.79581525236116 12.454488105638323
Pt 11.81588054545772 8.454756776151168 10.92820254017354
Pt 9.054366264635087 11.755257989069722 9.113137830541927
Pt 11.55645316408476 12.861676868185256 9.173866485660295
