26
Energy = -124.77760876 eV
Pt 12.64719608701562 11.471982869939344 7.204689642116817
Pt 15.25150547462671 10.205057188702208 11.35163851379669
Pt 14.19998202878253 11.116966609158585 9.18851701584266
Pt 13.46102623851423 12.07444120962787 11.637955938265836
Pt 11.927654497713778 12.454904655671724 9.472991496491407
Pt 11.45095598001815 13.699207759690621 11.69425758784768
Pt 10.022848476939652 11.638886036626035 7.836191024717795
Pt 13.09997865631287 9.625255312909053 12.691188340240222
Pt 9.481077132269055 13.224476542085563 10.012164726332529
Pt 11.511292094821588 11.636793675773491 13.339683447855792
Pt 11.420187592271965 9.523797191881773 8.332401393104323
Pt 13.26680388153918 8.951596670991766 10.121128224045155
Pt 9.18896409776279 12.823942580180855 12.644759381208532
Pt 10.232975715018524 10.861616840509845 11.032317534126587
Pt 8.131317673897549 10.109701892567992 7.070174696726035
Pt 11.55901875049086 7.129552700505866 9.236348827658725
Pt 6.940754346122323 11.806052728806469 13.423107587990623
Pt 9.208929244359757 10.881355029560819 14.46022842188444
Pt 12.065728224994489 7.358454568237255 11.829092072877666
Pt 7.560288714468431 12.387042123039592 8.383839643673465
Pt 9.354300859054831 8.113020235555473 8.168496379009982
Pt 8.17401533196616 9.738445318146649 12.280225820657515
Pt 7.216073773240914 12.006584848418534 10.867338780774794
Pt 8.083184647632171 9.849089707131068 9.661977701604403
Pt 10.634261439904721 9.077136198163998 13.181725994054409
Pt 9.734417782064597 8.179665561386882 10.849202485281138
