24
Energy = -113.94437009 eV
Pt 10.753984895995941 14.10518940164894 9.457638010425681
Pt 10.831422823575581 12.636737914266323 7.281919401991385
Pt 11.483876654666519 14.5272224981123 11.981293406948145
Pt 13.28658903007637 14.735213495761952 10.212506129501177
Pt 9.420841785149333 12.982734455322085 11.482119653549633
Pt 8.996546769667415 12.174342805523613 9.053802660731682
Pt 7.908557847364494 10.899946483510204 11.113632847421897
Pt 8.386088223348837 9.653910816565467 8.727097047740003
Pt 9.83835823639838 8.49513156538463 13.329756172160224
Pt 9.204604062450931 11.062276349161323 13.409434430128686
Pt 9.79571960927051 9.19515824722818 10.862178222404667
Pt 10.928699844580557 10.450155329554558 8.826509104228288
Pt 11.28399698648455 11.092537234610564 11.843431348857585
Pt 10.068976630763043 13.586118730852117 13.936120269072275
Pt 12.598809066151636 12.380309077181808 9.183000755176081
Pt 13.985732626182912 12.495960425696005 11.336078906726337
Pt 14.57039132695112 10.789139113801399 9.190708105385
Pt 12.507179716501415 12.679653151380473 13.46789259152769
Pt 13.647522778895206 9.87017243806554 11.410618965099834
Pt 12.78943659584864 8.801699625268856 9.274548369680726
Pt 14.307750460341799 10.898744158339573 13.683011620247969
Pt 11.097937037697923 11.271027940883995 15.124482945966921
Pt 12.189919016205629 9.413414858481875 13.638097737043056
Pt 11.83527940405597 7.811460121990296 11.491020070145813
