23
Energy = -108.33213006 eV
Pt 8.41612616773915 11.656575375670704 6.274081829516571
Pt 12.67783465764652 12.996471728119873 8.372120894333825
Pt 8.09784926907406 13.766397130912365 7.886461333577544
Pt 7.870420126464326 11.268558656662378 8.744736293660512
Pt 10.226802853934704 12.306468048496498 8.08969299653469
Pt 11.031556383519856 12.82134342463788 10.441374388631257
Pt 8.447396222493936 13.296574303336717 10.424494030604398
Pt 9.609657084985303 9.598322966896953 7.392524861421696
Pt 11.929570374361914 10.413153169585517 8.36053436971979
Pt 9.391585379545068 6.971776347686207 11.17034371932095
Pt 13.168668552910379 11.424616585327321 10.412301367574988
Pt 12.739960683158651 8.221318429931424 14.31964585284558
Pt 8.490952385747015 8.997579340679604 9.710542519235176
Pt 10.93949512114538 8.332636545427189 9.349961929592974
Pt 13.223556069423758 9.931685626777861 12.411139203024497
Pt 9.623713768309354 11.905797394653105 12.382571922249085
Pt 12.171018368183043 12.35781500419363 12.793393191888132
Pt 13.44946984491829 8.78672107608368 9.936593944894383
Pt 7.46558236010813 11.018851696540223 11.269265342651178
Pt 9.240404755163224 9.358049808982495 12.137241437864066
Pt 11.069408605610743 10.266694983116826 13.897724232955536
Pt 11.785471630883803 7.9281798788684466 11.759335513688995
Pt 10.266276064285274 7.70718920702362 13.796695553826199
