20
Energy = -92.30920828 eV
Pt 8.412030162421189 6.670759643635575 10.95288336905539
Pt 8.667430628171605 7.384820929715303 6.448490124954688
Pt 8.433537857106565 9.001941244015978 12.019651952339139
Pt 9.743776089957446 7.188441721003793 8.80263871270021
Pt 10.83730668481029 7.632815965199688 11.041622291104119
Pt 7.5482005936321634 9.61820643844637 7.104011701320001
Pt 10.873310351645719 9.33228164810654 12.993772588678928
Pt 10.11569842446406 9.405191229589546 6.897770483635734
Pt 9.74235403926714 11.264778370065004 11.6395580456745
Pt 11.947957565683145 7.884448328471241 7.67496727947651
Pt 8.256467341722201 9.145566785974482 9.484968941346118
Pt 7.84856572358578 11.716212683293266 8.474907509896024
Pt 7.256334266788493 11.070135732019788 11.065495870878218
Pt 13.173741702373514 8.570221102841844 11.990585206807754
Pt 12.234096058296258 9.361598697791564 9.664150350301007
Pt 12.277021709896566 11.047287432360998 11.563701715405717
Pt 10.375509425401406 10.916900630503305 8.849283580585956
Pt 12.081687493491312 12.669102501220088 9.648195857685208
Pt 7.096709519811749 13.455623389304959 10.216087305716206
Pt 9.623683369918114 13.209084534885802 10.012676120883002
