25
Energy = -118.88250963 eV
Pt 9.402783432385105 8.981821470806107 6.671545058269557
Pt 13.670081686945995 9.998593844314728 7.618535037621134
Pt 11.16726322878555 10.413454517933358 7.8691397531332985
Pt 8.557393190965144 10.764083055964692 8.25756778447631
Pt 9.607993414918548 7.259392052840558 8.448674030559149
Pt 10.311679311449847 12.512756387840547 9.321709462847853
Pt 12.86630276168729 11.79933920748109 9.271205956135018
Pt 13.627641696049302 8.815877630436074 9.849841395212287
Pt 11.118279600358798 8.795248617941887 9.914596307499227
Pt 7.801550079155815 12.546465826398206 9.942125665236984
Pt 9.579433689855323 14.233047601316418 11.141241363788433
Pt 8.589052800239966 8.936387447695422 10.09408344685881
Pt 12.50380279391761 8.101952723682707 12.103260219064248
Pt 9.885877830322427 8.882456976694959 12.438414941107334
Pt 8.29803935453152 10.841303255937067 11.745506527531752
Pt 13.6363597357285 10.46476123960872 11.778377346215398
Pt 11.025055682485712 11.06575145756414 11.445313145636035
Pt 12.0936669319773 13.594711981451058 11.00075150025238
Pt 7.98962564564479 13.161937849637416 12.848817886977823
Pt 14.53243282704279 12.769853239393264 11.172458273118657
Pt 11.90349196658173 9.983218469703825 13.794854971354079
Pt 9.43197557513352 11.069363513677414 14.053049188243746
Pt 13.10878248768661 12.502222961660312 13.383060594366809
Pt 10.593447630547963 13.287738696282481 13.27228088362818
Pt 11.507945941491299 12.028219269625684 15.373548556753333
