20
Energy = -91.2635114 eV
Pt 9.997267617755284 11.225282246136244 6.591178660335021
Pt 9.272628403383015 9.005696918556747 7.414862733209675
Pt 12.182894093103014 10.998678043380556 7.874970671802168
Pt 11.450562455029704 8.746137302558346 8.70263626447283
Pt 14.263917102732576 10.817702399089525 9.294419530950103
Pt 9.89424097198773 12.135545038379872 8.968959381766373
Pt 9.172099003908446 9.86869947249387 9.807604490256145
Pt 13.548060401027653 8.59280020733742 10.103815134118756
Pt 11.382292474528386 9.600895720812941 11.262023856419061
Pt 12.145113750799693 12.011093785288779 10.375284838687705
Pt 9.93753045287648 12.98731983689665 11.34702089762832
Pt 14.363709878437886 11.714101103184102 11.765984315586056
Pt 12.28365887116265 12.815470707436322 12.847556535288199
Pt 9.220466198590506 10.68957435437365 12.203007044067386
Pt 13.659332352757762 9.469155942589605 12.586092485902858
Pt 8.79854791357702 14.020158635698243 13.311283511704403
Pt 11.569969720789267 10.512844669280724 13.697961722324706
Pt 10.942124269425985 13.895209656906172 14.65434752581143
Pt 8.136310492760762 11.763045739336315 14.180523570920215
Pt 10.284883763404848 11.636198408302759 15.51607701678773
