26
Energy = -124.00438716 eV
Pt 14.72414341563542 10.055550933864152 12.213386087122196
Pt 13.637601187100499 9.185924823533187 10.065538480127241
Pt 13.774543372969452 11.774441090371946 10.495640646794014
Pt 11.899617372342549 9.263202587014618 12.000011463647256
Pt 10.860120261234592 7.044485254478935 11.249203048548036
Pt 12.75552378628334 11.56109856638614 12.846820263217673
Pt 13.240054411059305 14.088252308491803 11.618553300681615
Pt 10.2835162664587 10.925637921085459 13.41293094133706
Pt 12.713030152835099 6.804541075490132 9.528263241779038
Pt 9.814182633669521 8.283588707348835 13.30267135533907
Pt 12.919213786994835 8.541247488596538 7.593120386030614
Pt 12.234785901497183 10.879905080254021 8.587283750258083
Pt 10.630395231497165 8.289787745377922 8.948115199732996
Pt 10.877591541768902 13.203672325000854 12.167153555030268
Pt 10.290235071173107 11.158090242283023 10.512293780593247
Pt 8.892652396214542 8.847042166575582 10.868937611579367
Pt 11.801439550479579 13.302118787542572 9.610613698993253
Pt 7.865608088369091 9.885851161774157 13.114545451866954
Pt 8.478858302967641 12.469162296139954 12.277584214105985
Pt 10.691756859327285 9.859675764832426 6.796358469499902
Pt 8.802208547203124 10.081783710537554 8.578346998487838
Pt 8.56057184575764 12.701149021665122 9.100800963875916
Pt 10.476908401077004 12.458308715708387 7.521110052920844
Pt 7.204670395985334 10.803265368343917 10.505053748712474
Pt 6.0369791326266276 11.606478723206651 12.691942020389833
Pt 6.685564383961393 13.39119287147003 10.680670948449595
