23
Energy = -107.28014707 eV
Pt 10.367091369238596 7.028974399364392 8.568284358847533
Pt 7.918209895289034 6.373596023318396 9.165805972744627
Pt 9.792929247424622 6.235443888851929 11.007864348686004
Pt 8.318748715610404 8.302200015013078 7.261234319317902
Pt 10.912624764584352 8.444685705950258 6.462618329871597
Pt 12.711419483718249 8.229631540591376 8.371168333967878
Pt 8.831940929628107 8.658161934408737 10.382375410169985
Pt 11.649453670179522 8.098606288139145 10.77337034176429
Pt 6.381398327558865 8.449938660593064 9.08780757626538
Pt 6.735586189964996 8.284950716760248 11.797305123971446
Pt 9.421515092665544 10.541507336243143 6.297695513831629
Pt 10.656155406459929 9.914969333308033 8.752680870765458
Pt 11.720116000986428 11.684721476071298 7.252607028872998
Pt 7.690046214207249 10.566798448985324 8.263971311639171
Pt 10.020356840213598 8.157427335920564 12.792825482555527
Pt 13.038209853447452 10.191777829492354 10.095035982790055
Pt 6.6550945102654335 10.601166770162957 10.714179063990109
Pt 9.477800234250633 12.531137676591094 8.148613546762176
Pt 10.97563811768531 10.528563189259975 11.857016379527487
Pt 8.462883994028395 10.208552787983074 12.707912504797452
Pt 11.517805826112836 12.278010686935682 9.91718012244988
Pt 7.151939229688327 12.806446828490934 9.357445936178028
Pt 9.063289857208723 11.71907519880697 10.650446885356926
