22
Energy = -103.86978414 eV
Pt 11.551706828243 14.430026410841434 11.85752241666183
Pt 13.284029025204363 11.898941525350441 8.019902540563356
Pt 13.948917798489973 13.223294431207108 10.6295131396548
Pt 11.639662364991032 13.231713902257475 9.536455331335233
Pt 10.632757969151545 11.751328059930541 7.743295664326501
Pt 9.363789833560814 13.601993971530296 10.587007664464519
Pt 8.390517543527869 11.852471252619624 8.984421605662769
Pt 9.262691003558865 9.478974470018544 7.895220537073246
Pt 7.580255782964513 11.92678892855861 11.617535857635119
Pt 8.576525960512573 9.784483423268407 10.43272983010637
Pt 10.002235048941483 12.379330637990646 12.780851368487907
Pt 11.880933646451052 9.660456797362441 8.630145417071008
Pt 11.086863084316919 10.948595372782554 10.81884030122646
Pt 12.67607635079632 12.192753563997874 12.621491974683504
Pt 13.730154689473126 10.678337941905275 10.291877617200393
Pt 11.130929819235131 8.68285784515122 12.323028348749622
Pt 13.057410157991974 8.149329692959864 10.493836356280623
Pt 13.450214967929552 9.721568975134009 12.684786559131151
Pt 11.363893341533254 10.585038796964305 14.228809699529448
Pt 10.404930865940324 8.030605373537789 9.906415368422682
Pt 9.005068103721673 10.043610626817841 12.97480613283311
Pt 8.748015454452181 7.6237781268501035 11.92544471218625
