28
Energy = -135.31980071 eV
Pt 10.342832865142853 12.10906951231194 7.906418648810444
Pt 11.329327181102109 9.99526664490023 6.70919798812327
Pt 7.818146185814524 12.15289388842006 8.673851236466282
Pt 13.31792731680907 8.904634861611925 8.155981708702596
Pt 9.586320110889966 13.754267495561121 9.779271915760885
Pt 12.896637694892275 11.497440941343235 8.3202788794245
Pt 12.058215869693456 13.99687214454873 8.653080003202241
Pt 10.782214519758446 12.06167306069423 11.323249729875664
Pt 8.973768705356061 9.877349469248065 8.062113718662786
Pt 11.033196789628233 10.052455170607434 9.68925786113817
Pt 8.016264207297882 12.34038278653572 11.289567385632472
Pt 12.661008267297417 11.245139084777831 12.838662582570537
Pt 11.567026936555862 14.616915023404106 11.272296442264782
Pt 11.337090539551259 13.356841729935635 13.58658205759758
Pt 13.497561462745303 10.047078048587874 10.5994173525322
Pt 13.224970910754124 12.693933009589642 10.643698370520053
Pt 12.678491214137205 8.633691933605514 12.72384288737654
Pt 9.128929715160176 12.034583137894646 13.685558377727244
Pt 12.357223242057792 7.713986422121829 10.311302879284625
Pt 7.244312169602543 9.957505869008438 10.068344980849144
Pt 9.257357176060925 9.974140162266057 11.650566548241828
Pt 10.622765236688748 9.808859441910352 13.764014782050811
Pt 10.795383770149067 7.871802779407327 8.12509539239189
Pt 10.302068940903952 7.624966149636813 12.060918629349407
Pt 7.07991064901455 10.558621561616459 12.981780719315426
Pt 10.462598279058437 5.977206012339579 9.970889999327742
Pt 8.661479254733482 7.75448743812637 9.694105640319265
Pt 7.552433867872666 8.049204778719771 12.007168581582105
