24
Energy = -114.01110557 eV
Pt 9.989535871519708 9.939075943632764 14.304294578746688
Pt 9.190618820158841 11.768650713170397 12.598490564743678
Pt 10.676313613048837 13.834597837710602 11.989465842231478
Pt 11.618156824865624 11.337703878768169 12.801679172983308
Pt 7.9443858836050065 9.561932848900081 12.439204811338058
Pt 13.824533925025909 10.228093262379968 11.418256590714114
Pt 6.738561411124428 11.850663529448525 11.672450550848605
Pt 11.871898998950163 8.863045634959857 12.424544324131267
Pt 9.654276937425708 7.6726257775721365 12.964014633769972
Pt 8.73345883828659 12.930508378351282 10.404378228264967
Pt 12.756958845493472 12.497375169919852 10.866411818674703
Pt 10.914012761370634 13.681974949223124 9.370064335230909
Pt 8.75220602652917 11.837743515863044 8.105016519206462
Pt 11.653374217069738 6.288933817753319 12.176686827060122
Pt 11.955022529251536 11.364182246029491 8.778926642249651
Pt 10.029854076986311 13.766112326944901 7.008327351375274
Pt 7.664459478016628 10.30040551551195 9.82184292702109
Pt 12.140621379384063 9.036297117321835 9.903438604642425
Pt 11.008709521708644 6.7504275363598785 9.822260532628748
Pt 9.251894697613997 8.405092867382896 10.54425604659388
Pt 9.453518279184395 9.37692174445628 8.179998263702835
Pt 10.772706301114571 11.358004979120278 6.560829455897535
Pt 11.940136210077284 9.159647722334471 7.326877569866935
Pt 10.39134407940554 7.116542214102147 7.444843335295125
