29
Energy = -138.6005105 eV
Pt 11.346367274410682 9.498370978234249 9.148560182070701
Pt 11.615538691155347 11.167067875077594 11.22972503782304
Pt 12.470703192388045 14.30251494866413 13.3984124323173
Pt 12.473375530636014 8.068160634449512 11.041578956663322
Pt 11.002371741541031 6.675789801755994 12.57644860322725
Pt 10.804927820378174 9.936657697976855 15.603482384487206
Pt 14.32755280614789 12.567830611468548 13.085356094429882
Pt 12.698799373978582 11.562822729204406 8.293886857477105
Pt 13.494986043040111 14.189754534170557 8.934214159654884
Pt 9.139436322599497 11.847483054568443 16.1728598141412
Pt 12.079618858331916 8.683193184014065 13.743796445999445
Pt 10.454915791983838 12.040676817838044 7.203679974545118
Pt 13.766494350467076 10.11986303455284 12.22432602283772
Pt 9.696332956158875 12.455647816824928 10.180715921136043
Pt 13.965013255649318 9.685831207372162 9.623148323609316
Pt 10.206135478841349 9.144676830010145 12.069503020082882
Pt 10.783986357920234 14.190865136392517 8.56378954950803
Pt 11.096077514155633 13.119588981623215 15.141647054465253
Pt 9.14494427812272 10.695476142862118 13.88813754479391
Pt 14.066010076218237 12.159911153864778 10.480373415226838
Pt 9.469947218620948 9.790622411895116 7.421708892507197
Pt 12.598633121043077 11.19050512850114 14.30227720795379
Pt 14.204595249257322 14.623117947231467 11.377184956322152
Pt 11.683241868916404 14.021834409856629 10.95394159453112
Pt 6.329326956715994 9.995207058563182 10.01051431069468
Pt 7.639802924562873 9.901237779532638 12.093231749631197
Pt 12.41648499567169 13.619561616444363 6.650076362896194
Pt 10.226032381629054 12.729202689249261 12.768019160407622
Pt 8.814503599297742 10.032683817641129 9.835560000400408
