27
Energy = -130.40822757 eV
Pt 11.214315201204903 7.326312335904773 7.923268860798011
Pt 12.974420030290133 9.237095650641884 8.448795791818396
Pt 9.66149251481415 6.546466688717313 10.007066865844596
Pt 8.593309049992314 7.92865203566759 7.903368284523137
Pt 11.783984532775746 7.926047871379942 10.388454174244426
Pt 14.084115547129846 9.022230607875894 10.856397686217477
Pt 10.408678938307807 9.800923822151606 7.847147554071062
Pt 10.01177703891059 7.594555411642826 12.36302902358972
Pt 12.163602814969277 11.691805102683105 7.872526245304682
Pt 13.984588525244481 10.950948512294607 12.679430348561494
Pt 8.642364470732328 8.889158489770656 10.350033285963676
Pt 7.7976312356929025 10.36205196802516 8.268302766880401
Pt 13.143343617073027 11.366310343564486 10.241209835977925
Pt 12.31362807388607 8.923828933583104 12.734009181594406
Pt 10.417259630642175 11.04816309473818 10.388153397286777
Pt 9.658054981886734 12.341050786799698 8.122889090110805
Pt 7.150426881535359 12.855447005214453 8.644390886977062
Pt 10.497335928488907 9.001123009017805 14.538668182582233
Pt 12.611666987340573 13.096785409077361 12.172947582729497
Pt 9.05956370078248 10.049594922821747 12.635044062400318
Pt 7.8325988021572766 11.381673902465591 10.768780739817139
Pt 11.529272364358258 13.417891289058982 9.737686739925039
Pt 11.446408460537885 11.239784781994176 13.581705139988468
Pt 9.445024774967466 12.597022449877013 12.45589328060352
Pt 8.875855720649406 13.970382965803653 10.207551012118449
Pt 11.098410040956379 13.74430462701937 14.202600697934495
Pt 10.699754193874591 14.818500664919918 11.813581453867688
