24
Energy = -112.13635884 eV
Pt 13.156485068403775 9.143142622692475 14.715712853783074
Pt 13.229010496829693 10.888486443065629 12.772048782608728
Pt 13.62124266053725 6.6294558826773 10.958379463262174
Pt 10.225362436817141 14.01605941011131 7.3233978814335545
Pt 11.420257013588365 12.332455845419794 14.272462969340364
Pt 9.910771079529173 11.513215006287393 7.78934515000675
Pt 8.131247240771263 9.329766325428455 10.61814860769991
Pt 12.907620106543334 10.91735684420412 10.221320049729911
Pt 12.233895228138758 10.073834700553315 7.782383095024777
Pt 10.016990702754706 9.128425649041978 8.755102439392635
Pt 13.50545039576265 13.371729759982127 13.295098006701739
Pt 8.68416261693418 11.792113102894694 10.126761831643131
Pt 12.032177002643966 12.663330441884959 8.55122191759459
Pt 8.20931738323987 9.814838345528045 6.996890230834864
Pt 12.380094168454677 8.29874867952662 9.681654213760977
Pt 10.031673728615468 13.95012106024949 9.869979705576
Pt 10.63853384320341 9.959127124027322 11.117629617895796
Pt 10.835274372996158 9.718385443778427 13.848674789597657
Pt 12.582423122676401 8.45468046288117 12.331815098536351
Pt 10.129319513186026 12.604897849992641 12.112929065176257
Pt 6.764685555881941 10.56755735355576 8.856830597057906
Pt 12.344037247991405 13.349105174693387 11.06633182070481
Pt 9.288906475817162 11.327317853802315 15.18940775273815
Pt 8.602527121306347 10.643872557317096 12.850240733561387
