29
Energy = -140.84996985 eV
Pt 11.097840091546598 11.740426514113116 7.297644238413186
Pt 11.48202829069884 9.294223734815281 7.9905680774078816
Pt 9.050784116228872 10.178201487538823 7.467210940510814
Pt 9.13782444734555 12.421679951380748 8.869986199541216
Pt 13.050227234902744 11.107105770614542 9.089577996062523
Pt 11.522233443091872 13.359933085577573 9.238009775869493
Pt 6.985200645180335 8.64458816760918 7.739023217869945
Pt 11.859574777729982 6.787981467781066 8.313345848200438
Pt 9.386947297612398 7.523311845680143 7.946756653491533
Pt 6.908923332863757 10.963269949245996 9.049113919516246
Pt 13.786192836470116 8.53377186079068 8.928380944585234
Pt 7.134887944488659 13.170381844261314 10.405701177514635
Pt 10.65246950182861 10.60915862192181 10.387152396919179
Pt 14.022215463422178 13.419702474157992 10.00882902393953
Pt 8.417157765755551 8.965503786302191 9.933200308046667
Pt 9.507161209635768 14.119979805051097 10.898661307154654
Pt 10.49443013518552 7.4625769437973375 10.415823931087672
Pt 7.931861079657583 10.946666798162418 11.524575525304044
Pt 12.976747193054964 6.726396917575383 10.812832940452424
Pt 12.034885083050213 14.366534098260527 11.503208603313091
Pt 12.951964982665462 9.301993271859518 11.242566491449024
Pt 12.834388818437185 11.828911514830844 11.711419325457628
Pt 10.553585661969853 12.550587676362234 12.686788253039362
Pt 9.331029540553514 8.872139142066597 12.295655027140606
Pt 8.02622808980384 13.160872888632586 12.95821891789814
Pt 11.621275768428939 10.23080644985809 13.329780984279136
Pt 11.600839276852795 7.612046600644404 12.84963722968081
Pt 9.005625516860402 10.933698053249708 13.958208279885236
Pt 10.102324583636172 8.64971349003099 14.7842833256823
