29
Energy = -140.95001842 eV
Pt 12.262279632190728 14.263941810616647 11.852121079475483
Pt 10.861370604098642 15.056147994178367 7.7359308447833435
Pt 12.417113029260475 13.666830122526376 9.29488368912792
Pt 10.156952224997218 14.303893452855911 10.241697510333344
Pt 12.334417957361387 11.846416778269134 12.909042630451243
Pt 11.388959629327339 12.470154511137258 7.286994186154868
Pt 14.209041327303952 9.991326085832545 12.35983381020826
Pt 10.004852154186421 12.884045786784172 12.372771972028934
Pt 13.885605787344625 11.84472131959497 8.09944242182475
Pt 13.726394438525746 12.161344569269088 10.788933276734355
Pt 8.888919760209717 13.45782491897126 8.115414028501355
Pt 13.545922824465976 9.850782796725642 9.809111532524573
Pt 10.147169034904465 11.210950564951359 14.424313096358164
Pt 11.766980745836316 9.38378379806681 13.308520457194815
Pt 10.52755102046166 10.550688024776411 11.157688173105466
Pt 12.777486588678967 8.01219106666631 11.41471818661761
Pt 8.038895814679089 11.219564753658231 12.902265858306844
Pt 8.185379841216866 12.47528120598349 10.377299846834688
Pt 9.724749460663416 11.021476650576831 8.673606632105592
Pt 11.95926360793952 9.982150663455043 7.825021821552118
Pt 10.854296893666339 6.8756760319958365 13.070775602632922
Pt 6.1473153242061755 11.110044740126606 11.137922494590152
Pt 9.261002649000174 8.961284151556507 13.341939147590004
Pt 8.872274207760205 7.392125030089467 11.3550004783689
Pt 11.094493423302534 6.332313916973597 10.481787929061799
Pt 12.695483730103025 7.577217800756642 8.744048648205624
Pt 8.117954897692114 9.668068444574642 10.185745739050668
Pt 10.357235940253139 8.598954108974295 9.405696466322034
Pt 6.848332188475497 8.837952147748661 12.300192125987373
