20
Energy = -92.6972319 eV
Pt 9.15246384602998 9.755834749937424 7.822172474508075
Pt 9.086659590847168 8.247789250018199 9.854238021858347
Pt 9.390213645314573 6.7012985253211514 11.790878825228935
Pt 9.13103302471512 10.407177112117344 11.133581257402366
Pt 9.367621584676046 12.006656257874411 8.994017720991526
Pt 11.402005464935067 9.23299344795728 9.00136898326574
Pt 11.239208690582679 11.363901931828334 7.338159118209927
Pt 7.820659536353713 12.65700797050811 10.964168173349512
Pt 11.640521122167879 7.863330181239287 11.206279085536712
Pt 11.275434289352454 6.7291818858260335 13.499658052782532
Pt 9.95234439949659 8.923575026123018 13.052394132991752
Pt 9.762822716691867 14.248562190638046 10.373046238775407
Pt 13.589608177120704 9.296642554302377 10.399130373485615
Pt 10.16401375272342 12.55836066890338 12.170147766747085
Pt 10.656190470832106 11.045300605543098 14.14194798798813
Pt 12.378411255875609 11.525581027514312 9.750758568165773
Pt 11.641924407137054 13.601040101931408 8.575094934151743
Pt 12.23530698169722 10.409012736656338 12.265817098668865
Pt 12.151127876774558 15.143583770058571 10.523507763560836
Pt 12.636564193166535 12.957305032192211 11.817768448821743
