26
Energy = -120.30616739 eV
Pt 7.971880302251099 9.329659891540626 8.652049575130738
Pt 9.943765097056868 10.84163980334378 7.046026375936735
Pt 7.556856491530714 10.754074120813778 11.046430127795139
Pt 7.971077445974837 12.286293389618022 8.709779879057507
Pt 9.116394421209113 8.332178403516783 10.864147864500087
Pt 10.66554503468079 8.486922801189895 8.447343888172615
Pt 11.444076163269687 7.008428863406978 10.730578940977566
Pt 13.418283162313323 8.494792470119805 9.096486691366591
Pt 13.62761887388068 8.508863788796825 12.059835667096772
Pt 11.04028152611821 8.45204244065366 13.075650311887738
Pt 11.755085361220347 9.509191308202064 10.70173474922474
Pt 12.364312365454955 10.794686715605486 8.204431132548466
Pt 10.020289087164162 10.771213002773772 12.143637361437682
Pt 8.3809246481363 9.23154871916713 13.281319545770936
Pt 9.815719641077147 10.79312821076585 9.564198642263166
Pt 9.069915629823276 13.2141976365948 10.97222719905007
Pt 10.613911136714563 13.129490922059857 8.480057287095946
Pt 8.322536215245938 12.200320231282426 13.342775394223802
Pt 11.726001586080628 12.09694577889087 10.716643041472432
Pt 13.332464839248725 13.138408282700869 9.075934578014243
Pt 10.988885135002898 13.09922014360203 13.111283856005358
Pt 11.35685953454784 14.590462023879446 10.723824970114194
Pt 13.599316210705066 13.15725438574756 12.03324893376144
Pt 10.56380961379748 10.725485167163527 14.60304612432231
Pt 12.761093219634343 10.832376755713433 13.07591282517625
Pt 14.100994277067409 10.831758954350686 10.515276456608918
