26
Energy = -122.38820029 eV
Pt 12.265105349571948 10.166405018131243 10.490847474086719
Pt 14.704260319462716 11.4548696282317 12.706855346382012
Pt 13.479193361260176 10.390370028820604 8.036781049560961
Pt 14.360780944756264 11.628856419370665 10.18851458441288
Pt 10.916536657004995 8.03979423846529 11.491751401720464
Pt 14.538711627943531 8.929522782974104 10.243862887523452
Pt 12.23657394906649 11.604467879623783 13.605581107397002
Pt 12.200328975023464 12.6889187896217 8.988226320933304
Pt 13.15041994539331 13.437265941262186 11.675632444666286
Pt 10.914084681195124 12.111445772997635 11.384039670217422
Pt 10.924053455580802 13.97508392639159 13.253912206011796
Pt 9.561885705132068 12.725515861209301 9.045350837124039
Pt 10.92529558681716 14.565186826753804 10.536831382689247
Pt 8.669235671081827 13.432611911318727 11.66492033884697
Pt 10.871090988037666 10.509896184157398 8.126938146685783
Pt 9.596319542488468 11.617794844094162 13.61813243321838
Pt 12.273227237658977 8.02241776394622 9.085611741549739
Pt 9.697569176362983 8.121483023442792 8.856377967863908
Pt 9.628365433001955 10.117415157579854 10.485228802115873
Pt 8.27118093979117 10.485615472470748 8.020169036503985
Pt 10.892855395739835 9.33542897145886 13.845932434948455
Pt 13.207677797686078 9.244018328217383 12.640543411883659
Pt 7.468928138672027 11.523098788731529 10.261223947616557
Pt 8.57293529106786 9.282972851881842 12.61270254084999
Pt 7.116484095110599 11.531300412636192 12.769976192665384
Pt 7.37244473509281 8.873788305094497 10.17960133548664
