20
Energy = -92.024916 eV
Pt 12.150206314208656 13.382626928442981 11.065632608208544
Pt 12.806530189332594 12.194859809703386 13.301128426057428
Pt 10.246534531492884 12.675568848295836 12.634111948350668
Pt 8.75587253660229 11.30510125192173 14.20014899048202
Pt 11.730219989132763 11.41734088003022 9.261711576609807
Pt 12.841454942042704 10.509268482799243 11.356529754356654
Pt 10.97758658137095 10.27496597696177 13.071027649392873
Pt 8.409453463188074 11.083052079118241 11.580602940102219
Pt 9.75332697811693 12.839023655203953 10.068598776067628
Pt 10.005139458532582 12.428768311242804 7.542625098713077
Pt 8.770753258112546 8.914667485750016 13.065227357806721
Pt 10.999822013401248 7.722541838260721 12.698388232202019
Pt 10.932070572851174 8.681657523087624 10.33915883462756
Pt 8.661801762772207 10.713516875479193 9.01065314383932
Pt 11.157446808798793 9.314383713536108 7.871686345005388
Pt 8.40239041013826 8.642289475349417 10.547302722565306
Pt 13.29713324320566 9.224002026446056 9.217554536333658
Pt 9.289403517326445 10.218968839685783 6.443392156032732
Pt 9.944279227146078 7.749670162719011 6.148879248603116
Pt 8.411263339852432 8.228363789943387 8.09147709588022
