23
Energy = -108.44070898 eV
Pt 15.603216033081964 9.594387766601471 9.383346605849122
Pt 9.052069023802318 11.535482018352683 9.596225501554215
Pt 8.25244120300956 11.566939122404296 14.030166115607162
Pt 12.13462171510953 8.605211087088287 12.970015096197285
Pt 11.831085194704036 14.469659507012107 10.594755407126318
Pt 11.434074655511084 9.097110395861469 10.49334906032179
Pt 10.223789595592903 8.29460916888469 14.730367698180931
Pt 8.946907850043102 8.947129053412608 9.853814606583013
Pt 13.703119220648 13.451017229960994 12.057371180540592
Pt 11.376986582522022 12.43307141402946 9.136419566079176
Pt 13.808563028142268 13.344984769839197 9.339816098688283
Pt 13.932587566801073 8.994464707319905 11.219818395277969
Pt 8.05256159124003 10.400348359115414 11.777423555804859
Pt 9.85417364383959 15.201057270999371 12.094251207755754
Pt 10.554726420429551 10.628208690101713 13.65396081331503
Pt 8.754793643842955 12.888062288106894 11.930877985737741
Pt 10.832233018526164 10.094417021475486 8.203872782706817
Pt 11.200179419683709 12.972253072431375 12.737538791000684
Pt 9.524211776268677 8.388050161529987 12.314584042400805
Pt 9.336418244558208 14.106096670177037 9.716597923017845
Pt 14.939863388822152 11.537263475345975 10.893344885224543
Pt 13.200391692270872 10.660561575417768 9.153027191860774
Pt 12.914664631557153 11.062698661251966 12.588405639721266
