27
Energy = -130.34917052 eV
Pt 7.127878831498162 10.899371818678238 12.999550296521152
Pt 9.80260302548242 10.757246909246208 13.34014144494009
Pt 12.39563238556203 10.669294596941471 13.371009465892813
Pt 15.027312962035635 10.649272386175541 12.948520684679666
Pt 8.247157094031753 11.160661347378994 10.625375100198296
Pt 10.930759486639923 11.040408325578836 10.926151883578987
Pt 13.740375851776099 10.979843375330661 10.642947915170923
Pt 9.530572723486486 11.408968413886107 8.367766669283315
Pt 12.261849817283883 11.298773815967351 8.559865078564435
Pt 8.526428769795041 13.040098012190061 12.566499635737076
Pt 8.380930550966593 8.843711559061036 12.023218068789827
Pt 11.174846516019324 12.974339784421769 12.957267827067298
Pt 11.028060124789581 8.63035669135477 12.385840498451207
Pt 13.785360477856445 12.882244180605044 12.508559219842642
Pt 13.645950929845222 8.67592772721882 11.974643315212566
Pt 9.541309266298517 13.396111202100926 10.139140315654444
Pt 9.399464596719772 9.041066329824524 9.5781862603577
Pt 12.734219875318386 13.350536515155575 10.101410291369008
Pt 12.577452320024861 8.896309411642457 9.531868424772155
Pt 11.07217105557207 13.593508885888966 8.052348820536151
Pt 10.937002284949395 9.286433128845438 7.496805466930859
Pt 9.886574358934519 15.151368134481395 12.162178416268976
Pt 9.608101984091755 6.81691174047257 11.094242269872353
Pt 12.557564790981733 15.087005783661732 12.140204783718714
Pt 12.29534138322392 6.719152614517874 11.067936172605638
Pt 11.188863819575438 15.462836302325409 9.905139734145031
Pt 10.913681032471183 7.00918417708163 8.812877560971128
