21
Energy = -97.52580023 eV
Pt 11.749403088141348 10.109908269118474 14.080157548962033
Pt 10.208405737601796 12.038078345260502 13.357259187158462
Pt 13.414864730856936 10.160425809192308 12.128615209495585
Pt 8.408712634268378 13.803040479756339 13.115600594484327
Pt 11.362636275425393 11.377632532559755 11.154218189788411
Pt 11.849400247968791 8.18547499561134 12.17914218723311
Pt 15.086750842836087 11.517326881112936 10.734558785359107
Pt 9.672833143040105 9.522215019307364 12.52093240121548
Pt 14.105337203634335 9.323991995914213 9.859534042410232
Pt 7.764708424368772 11.212628931719275 12.939173656554276
Pt 10.206069578638965 8.70421621010703 10.113211920832804
Pt 12.991815285144419 11.531728653718906 9.240930162351074
Pt 7.614158161076282 12.831905562304456 10.916662582020761
Pt 12.424000928502812 7.479182437246282 9.71169191261753
Pt 9.469843441883443 11.905058089163582 9.520820792955162
Pt 7.994725086181625 10.000348835824033 10.627282348886107
Pt 11.299538134657595 13.20853118713611 8.354829068265698
Pt 10.760381529467343 8.21362497553873 7.662997456436496
Pt 11.056259950915871 10.721915841961179 7.81316542308755
Pt 6.871954298476127 11.463637291639367 8.818045165623646
Pt 8.622380973229655 9.623307352123007 8.08535106057746
