27
Energy = -129.72342784 eV
Pt 12.786032914485004 13.68733899290654 10.698528099464186
Pt 11.657254577531516 13.698713981601516 8.350494420058693
Pt 10.403816891766104 14.851908983728308 10.437219335219641
Pt 8.950798019461795 13.563592497032825 8.565140555205378
Pt 8.539721495076966 13.143165277404094 11.228774246158471
Pt 10.800048639922142 13.370091640013284 12.6421430534255
Pt 10.78538649914654 12.011431215567237 10.308451319020044
Pt 13.363263212629795 13.029585768006024 13.159186788171693
Pt 13.07434491832554 11.402616546733386 9.042331287887222
Pt 14.599200254045108 11.902587733452789 11.15789385657547
Pt 14.426521383046033 9.397184877860852 10.501054812390484
Pt 13.229330193070757 10.368301629987744 12.675309110556825
Pt 10.350602547256392 11.490688072846046 7.730906503909264
Pt 11.543878445382264 11.469848020061816 14.32366286013233
Pt 10.74411120598057 9.918196436884397 11.760993126779944
Pt 8.388449623196003 11.128410577303454 9.426086642962611
Pt 9.203867790026916 11.37978780263462 13.244988072793218
Pt 7.127775071043179 10.992811705747876 11.733923913506729
Pt 8.083179667874672 9.08744630328313 13.444801303414158
Pt 8.520342504260356 8.92917375336155 10.8665101907155
Pt 10.252157165364384 7.730578659052185 13.037224459679852
Pt 9.716403162490082 8.988501159744766 8.556005679684057
Pt 12.078109020657958 8.953544082783475 9.593806320627925
Pt 12.0203819325977 8.90145271160574 14.440858357104515
Pt 12.677724260193251 7.893279216986925 11.885398852283966
Pt 12.114591185462292 9.77361349875359 7.188194054248178
Pt 10.371086736167596 7.143499439494986 10.442489132894973
