22
Energy = -103.16129592 eV
Pt 7.7035051558944625 6.367132156539697 9.28212444211941
Pt 7.244927954373951 7.97366320861096 11.338442174889328
Pt 6.584616812238119 8.727399851832272 8.903501707188676
Pt 9.669124242641688 7.299019254976315 10.747576525114445
Pt 9.112447793779058 8.300510658847186 8.14150454790528
Pt 12.199713558973208 6.745806422471827 10.719707643052864
Pt 8.920790765366158 9.427125529895568 12.632616493029834
Pt 7.347193349942121 10.512642115223755 10.712246861466397
Pt 7.8952173871317255 10.722871316786351 7.980797173595055
Pt 11.632802916588075 8.43046395316452 8.81795022641668
Pt 11.452837604466062 8.620048473769602 12.266586120945837
Pt 9.890504530968624 9.96941396117279 10.081454422850864
Pt 13.460351401131625 9.16504922957571 10.595559614695826
Pt 10.897972246031589 10.788396506456916 13.572487500631143
Pt 10.549911073492725 10.397062297886016 7.453697388339648
Pt 9.375672888970534 12.019684528801792 11.69795114593152
Pt 7.993617576301357 12.792599308634568 9.615552080197416
Pt 12.782275363819881 10.946469179348307 8.819576880337669
Pt 11.906599655639829 12.685491984323834 7.132177168346692
Pt 11.971590004421024 11.202885996607503 11.27411312364894
Pt 10.689520050459892 12.64337401886326 9.474446350392036
Pt 9.263396253776653 12.79685722238365 7.309771636343564
