23
Energy = -108.44509155 eV
Pt 9.41770980283562 10.450536285896618 13.506588565086844
Pt 11.795619928388202 8.50232401803148 12.129075965537888
Pt 9.23545767236807 8.486596361300338 11.62869668211309
Pt 12.092545041657852 10.543149842973165 13.615247536922737
Pt 7.484787151579487 10.677126121388993 11.728331183937227
Pt 8.524496261147583 12.893839478855755 12.612666094194877
Pt 10.789462922835067 12.798906145160656 13.901431038237634
Pt 10.695942758420879 10.783131542407514 11.343686238826997
Pt 10.970723885890886 6.961572566841156 10.22881625329343
Pt 7.007666613599201 9.00843679971328 9.917679248569138
Pt 13.957245817333577 10.070597796351032 11.77631170296235
Pt 13.219370528391984 12.59918696827153 12.498361753092409
Pt 9.325570028236175 8.527567922793882 8.985628459432235
Pt 11.482787790389215 7.8311407028765005 7.795418619136263
Pt 8.822842784935466 12.123321634411221 10.12374087615408
Pt 12.828940266629296 8.900823086417631 9.720969995279743
Pt 10.957205380475026 13.334629597019696 11.32105722626075
Pt 12.75309845388383 11.584748617758523 10.027755013268658
Pt 8.083314823688259 10.629623917438904 8.225709477921859
Pt 10.878459180651362 12.904477885971922 8.729869277779216
Pt 11.423502578274928 10.438278540750481 8.082514463551927
Pt 9.670522364673507 9.183506208702813 6.4520109985652425
Pt 9.678533335137963 11.859910105973716 6.706588944042088
