23
Energy = -108.11134793 eV
Pt 12.055822264305883 7.4759097450522125 6.963850545517444
Pt 11.462388509637622 6.706509957538488 9.285915577042356
Pt 11.10225260179214 5.9605143319640606 11.664451381093821
Pt 10.154594710988471 8.766306113536343 8.157053438346814
Pt 9.63008107434289 7.903236413911354 10.83968502240464
Pt 12.76348211010178 9.177845701579118 8.735550171855014
Pt 12.265086103185455 8.228713490410906 11.394503699229997
Pt 11.249138312051018 10.966109632762624 7.244680711775689
Pt 8.612315010253297 10.736271551729132 7.557800115666744
Pt 9.524897658714666 10.397894106057018 10.055540952568798
Pt 7.2689766267010025 9.460914609636102 10.880517829647895
Pt 8.553991910017375 8.684588771213615 13.044397685213916
Pt 6.530674328385263 11.014212792417599 9.022504002984377
Pt 11.908064164289714 11.519335708633346 9.679395205338835
Pt 13.843054228305636 10.129122574627454 10.907706658990271
Pt 10.768404262675588 9.940805087179834 12.60935349287415
Pt 12.42857167264134 11.784552295879662 12.227004583983478
Pt 8.378845967276996 11.277301667484581 12.355277785750598
Pt 7.483174402005136 13.137414273098008 7.6864743909687006
Pt 9.907958902983642 12.812479362585297 8.669101601282216
Pt 10.18479128009507 13.021194521029864 11.254785746878676
Pt 7.786107650905895 12.854359410250945 10.27445849042384
Pt 10.383493123885145 12.290574756963595 13.736157785702602
