24
Energy = -113.23221657 eV
Pt 10.083151743854721 11.487523390228588 7.535245957498884
Pt 10.453192939438846 8.35946923319863 6.268858764239626
Pt 9.776256873384147 12.944087528039551 9.756519014829069
Pt 12.183162228641333 11.77175279376586 9.199750817022222
Pt 7.832308057642859 11.330742562038754 8.981736403072691
Pt 7.482742473595822 12.81178572120508 11.170472977739138
Pt 12.118952558285857 13.357148207548507 11.267355593045709
Pt 8.198151301623883 9.362498332199007 7.3529242171994955
Pt 12.309511572392886 9.910319912846244 7.39749447630363
Pt 9.715806536641564 13.920850068943963 12.201052983541766
Pt 9.351323036803773 6.732200378437878 8.013980797949694
Pt 10.256557667661076 9.282416416628285 8.860948162846498
Pt 8.09035896472932 8.205313761288245 9.824538642184377
Pt 10.372185125509478 10.76571758289014 10.91837262124649
Pt 13.246702467166918 10.921939423574642 11.50450779552576
Pt 12.720031952761387 8.943173891867504 9.895164455184188
Pt 12.051520480908387 7.214323075996169 8.058303267816651
Pt 8.621303720657457 11.783235732520646 13.324131289241988
Pt 7.867587791354274 10.265626102094254 11.41364394697973
Pt 10.62103200844995 7.183155836392832 10.365800671578274
Pt 9.090453720439681 8.21103331733815 12.28116712555333
Pt 11.250913062992796 11.744995927434006 13.091899242994563
Pt 11.58233732356812 8.948690468362926 12.252199357690964
Pt 9.945247870375752 9.761677534863049 14.24290391338221
