22
Energy = -103.09676307 eV
Pt 10.579221783076814 8.927560135866566 13.286897874103003
Pt 12.139492361518426 15.017864419227568 11.773349801444118
Pt 11.06118186183418 9.027475362318139 10.66643745371955
Pt 8.600784165985045 8.87651721613457 11.592932353237389
Pt 6.979551577008384 11.002294783147251 11.50452306502461
Pt 12.996934705978346 13.657256396030231 9.637852523912859
Pt 10.384032869747386 13.42173158906077 13.118161600117363
Pt 16.46837736877733 12.127668800476421 11.955026653957676
Pt 10.551926121084138 13.401706380042501 10.322629595643335
Pt 12.837792967300148 13.535608699563177 13.812621767690002
Pt 9.362531735694832 11.069128831393893 10.348015241981217
Pt 12.994467877730079 9.241346117154047 12.61499204859632
Pt 14.244997984083954 11.504712344539847 13.198142936961348
Pt 11.690738079672743 11.236110323655979 13.784888438027098
Pt 13.508504393199102 9.166880304949759 9.976896993479185
Pt 11.879077502124543 11.285247678209371 9.669500109892248
Pt 9.170355052945784 11.120538823566886 12.988774722604502
Pt 14.331471136472283 11.625133187128178 10.469544425567285
Pt 14.53493294103616 13.893740986505119 11.835801778819642
Pt 9.559864545897215 15.48568430876196 11.663555292537351
Pt 8.250790235201196 13.274978345109977 11.563163220219826
Pt 15.424134733631881 9.651977010119431 11.767454188386276
