28
Energy = -135.89088031 eV
Pt 7.776094157377089 11.737227468653574 13.680534678235942
Pt 9.657573779636866 9.990399107764683 13.904292170089363
Pt 11.547725704079966 8.25448190380654 14.189869075823678
Pt 9.885266457155966 7.956145531915789 12.113318347446812
Pt 7.956594519764577 9.7697601746625 11.911421978613584
Pt 6.2980621936759 11.761796588863294 11.475511679647898
Pt 8.477316346379329 8.09387613718758 9.961109003565749
Pt 6.671216419097288 10.061614985965361 9.585680213229821
Pt 7.062490566157433 8.345603496309634 7.681879024177842
Pt 7.9965387477301535 13.761228614613962 11.904051393071349
Pt 12.590504936584257 7.863321735453833 11.852679063099638
Pt 10.048623152725604 12.242228087572515 12.481007209457976
Pt 11.809484220709912 10.307355214107169 12.427545287255459
Pt 11.036056889614553 7.5475923841659975 9.755643945592173
Pt 13.673417702552856 7.456774639821362 9.544882604741145
Pt 10.095599075601223 13.964956037790884 10.413464270396368
Pt 8.228631154353911 12.231311285580631 9.753327481007984
Pt 8.733949127971758 10.447768969824603 7.894772499444126
Pt 9.615510673216068 7.924372363083968 7.525634685450167
Pt 10.166441654608294 10.207708247797544 10.18670432928555
Pt 13.231447531551305 9.937991667113739 10.260418944975632
Pt 12.151386545667698 7.520218263186647 7.373349340116801
Pt 11.301941859895454 9.996804392471875 7.598501922359657
Pt 12.016572819825686 12.204364977809922 10.754148497217622
Pt 12.211601385046855 14.213921628402352 8.938765855318499
Pt 13.896453839115377 9.474100552785789 7.768899580699472
Pt 10.374012017969484 12.410964462205804 8.198010792521139
Pt 13.029155830098489 11.830115921322333 8.35678346658984
