24
Energy = -113.04628723 eV
Pt 13.50036772846652 7.669511866169401 10.479626064762341
Pt 10.99760782744125 6.450112928613522 10.165963716900238
Pt 13.806290165377078 10.023420400001271 9.248499841546746
Pt 12.963618128995638 9.955361466766643 11.758164012381346
Pt 11.712558992511111 8.45222312757008 8.734051676314756
Pt 11.633646721661334 7.698302311166056 12.32294876689372
Pt 12.635571609069952 12.208867743527204 10.167622728996793
Pt 11.76814515114057 10.941416638954658 7.908699932676147
Pt 9.35040965994866 8.223908096625093 11.057294995918921
Pt 10.586113630308017 9.87693442580268 13.082363211475197
Pt 12.013615424390569 12.162958086653141 12.726199228593508
Pt 10.72614834005459 10.3400485438896 10.352518300090393
Pt 10.385859729872386 13.183952904042767 8.94428365827952
Pt 9.657057663619963 9.181351786400374 7.472571512960098
Pt 10.737148470219939 11.627012094770953 14.986870642930416
Pt 11.218804254986747 14.183756906847206 11.180929916093152
Pt 7.339519017109961 10.324627148752842 6.946717683372068
Pt 9.560687912064758 11.839167285141768 6.874956956970057
Pt 8.547643002480465 11.387559064838205 13.551512729654025
Pt 7.763706732576576 10.272644274580832 11.382892362940288
Pt 7.741392932303472 8.855942880953508 9.143067531431207
Pt 10.03467616175645 13.704051271181264 13.501156318234012
Pt 9.286998866282758 12.45084834142342 11.302259390641956
Pt 8.433744552621853 11.374189661027247 9.109521796052302
