24
Energy = -111.76270363 eV
Pt 13.532192017566889 15.146700761895431 8.479009135771046
Pt 15.12675504700423 9.671846094488108 12.753296818503092
Pt 12.545033824764316 11.446923019155685 9.093772733412127
Pt 10.490260775895797 10.180433342803981 10.599500467473677
Pt 10.287956275661942 8.827585680407354 13.88410575756081
Pt 9.841728450055966 8.511405177204185 8.788179228988833
Pt 14.223014302522444 11.970025522991572 12.151246638247326
Pt 12.814435678233115 9.151246856639867 13.606590583845216
Pt 11.400650416640918 7.958592535001698 11.73209338742846
Pt 9.014169995652255 10.725487881743618 12.807391415287775
Pt 7.503455518234942 12.7797498417311 12.427665839987943
Pt 14.027861594429405 13.26738603141465 10.007725635194713
Pt 10.00754463228063 13.099716687676283 13.297557852143807
Pt 11.04743725467176 10.276035549230736 7.401870332552776
Pt 13.034191104998879 9.943737937191719 11.132103132496168
Pt 11.343230408437453 14.225557938887833 9.24092163657812
Pt 11.893355996300436 13.108726965889678 11.518516803468263
Pt 10.105776317781775 11.113165704399817 15.122793250990709
Pt 12.130764305573551 11.617787748427522 13.654331407967602
Pt 9.34912818468347 13.717241088193214 10.808236153425996
Pt 10.541688192845115 6.50814774274261 9.979958488277274
Pt 8.227891995419485 10.348947054983402 8.115026757444124
Pt 9.96329147193915 12.143756597205915 8.803908039350066
Pt 7.969740296536877 11.267587692787373 10.449237615976097
