23
Energy = -108.14825724 eV
Pt 9.693941810140734 9.069013575528981 13.246526032923837
Pt 8.505117825337694 10.681239484040173 11.583373769970777
Pt 9.353302262016744 13.084227620511143 11.50039100097575
Pt 9.017983780776568 7.252742589634882 9.361093907410329
Pt 9.865283414890326 8.81779061388916 7.355788471879738
Pt 11.50841767361991 12.480512944239894 10.247576590605524
Pt 13.536972189197371 10.932278591204211 12.629592991263573
Pt 11.84951783957716 9.82442809706896 14.445337288075379
Pt 9.522180254415806 11.19063245230349 8.25816942279383
Pt 13.300156820934443 12.418785702276011 8.454008183883351
Pt 11.880167722979273 10.327643800730067 7.764060723966463
Pt 11.357052519759497 8.456478004522861 9.521552676311208
Pt 9.736070623829402 13.649845782603528 8.880532341380947
Pt 6.377832634404619 7.390884222065056 9.756131813580204
Pt 10.332761222463272 7.135767531726025 11.532191549291033
Pt 7.7520715270164935 9.608043546556775 9.293693823170964
Pt 12.151669925407514 8.868574915365107 11.974070564616223
Pt 11.276137666164532 12.841674315568655 6.937119294489608
Pt 7.451389520526955 7.843884507151277 7.370024694070781
Pt 10.98645293916444 11.293010580651552 12.456930651219844
Pt 7.893171435878813 8.16677102396795 11.672679817669863
Pt 13.11200358241196 10.422312861547626 10.106544970499778
Pt 7.58057333767569 12.171749347251811 9.677725524311096
