27
Energy = -130.02949432 eV
Pt 14.915397178673524 12.433745080074049 10.637115295268572
Pt 12.85719830224401 10.763413091991698 10.349660436759473
Pt 12.85540348207942 8.828392519685774 12.07686255043823
Pt 13.600171206309048 11.386845114226825 12.682904832309301
Pt 11.494927785335939 10.762076082942386 8.135259761817496
Pt 12.555891663123944 12.96332483134898 9.225736483977466
Pt 12.029054819916118 8.472563497858793 9.536906168365114
Pt 13.017584780430933 13.862831539265597 11.593372036822954
Pt 10.522760041086991 6.54706029695788 8.733845101028736
Pt 11.4567710023731 6.644791803689611 11.28240884116583
Pt 11.544312037328034 8.314342846215613 6.986380853599473
Pt 9.886203098495688 10.189404735921386 6.125194610764169
Pt 11.663729629552732 10.309872984607518 14.031821922985548
Pt 10.611735518791926 14.672633431152184 11.411710419422343
Pt 11.141514338815703 12.546246045067944 12.869157846492383
Pt 10.31495722441289 8.62718870535197 12.540536664788128
Pt 10.246787679121203 10.58119734253669 10.702919713916351
Pt 9.283020738457644 8.853836171895283 8.302571823782326
Pt 8.979284925062691 7.585517484608139 10.565860318962715
Pt 10.009462591139307 12.961178246739841 9.53251309393835
Pt 9.194173343070377 10.839801068993996 13.314065063812906
Pt 8.667050808880978 11.373750194514619 8.012345788250578
Pt 8.712165461050349 13.08837456191784 11.96016504266637
Pt 7.75322444733827 9.933939536108062 10.126090157654648
Pt 7.680936983456836 8.779600752127298 12.470690820869535
Pt 7.3200550772231 12.572500085422963 9.811490398435318
Pt 6.888800193975591 11.308146306523408 12.184988309451436
