22
Energy = -100.85493954 eV
Pt 14.686508111453607 15.656084003043492 11.777648357348744
Pt 12.475936958348552 12.26462469005342 9.616858643267124
Pt 11.238114024463037 7.9396634577451835 11.436473633174774
Pt 10.022950473884833 11.83592553113953 8.685921618926294
Pt 10.225316303239241 9.291528775845682 13.458921505574727
Pt 12.472956510667649 10.193968102830903 14.02382738912509
Pt 12.275853910327914 12.17309623712491 12.441067108337274
Pt 9.267027563480488 8.574657518406834 9.764143649968617
Pt 10.628355991643103 14.037040730460983 9.825836722729818
Pt 9.132542259400957 9.771395008688891 7.4912306183374175
Pt 13.184635704475143 9.879878143950268 11.568648154919803
Pt 8.710833844116836 7.664301527224811 12.138042148857899
Pt 7.81722899519165 10.80219737647827 9.590229182164633
Pt 10.593467881443106 10.612546324690806 11.223593340444555
Pt 10.554598726589754 14.156099048450036 12.408547508704162
Pt 8.877465027704128 12.584638668106583 11.28775011536884
Pt 13.967452799932003 10.300929288031357 9.171759826720733
Pt 8.123481885609902 10.2913589416995 12.20040780008742
Pt 11.485733169802172 9.553881265894649 8.69173479775868
Pt 6.762603991238503 8.642310331485465 10.654275557265299
Pt 13.09896236425828 7.854677702551054 9.73486248974029
Pt 12.872520245033098 14.333710566954755 11.153315555634851
