26
Energy = -123.69220042 eV
Pt 11.144902750447773 10.090604902021154 16.21022128600313
Pt 10.801589438527301 12.297336695514186 14.973839786317502
Pt 10.228165601224884 9.752039218026278 13.869893101622532
Pt 12.968942305093947 10.829161974739147 14.532518504988111
Pt 9.018335243834104 12.141827685050682 13.115660652372156
Pt 10.2707781214332 14.41167408610752 13.658370764950227
Pt 14.291264983885355 11.237596894663072 12.367663452425056
Pt 12.402736838376434 9.501485056567414 12.36940929302879
Pt 12.644943121048586 13.114148170974303 13.24537048189326
Pt 8.551263038961757 9.802255567908297 11.882067708058997
Pt 10.346848043182014 8.011674061144683 11.863788669226297
Pt 6.884655015160705 11.71018169923175 11.789122425975412
Pt 11.193690624189115 11.735931120343201 11.594819963936885
Pt 9.967327031644892 10.342642811147854 9.807895662113033
Pt 14.616391851556607 8.996579018832158 11.021826680545443
Pt 13.959799600261427 13.590036160686582 11.030381875326427
Pt 8.416930657042263 12.403664494314471 9.90677473548746
Pt 10.095085423419407 13.973477944166673 10.986104600032508
Pt 12.109869150349136 15.234157834103165 11.852177885851134
Pt 11.989022047074894 8.648675954665471 9.963348031565202
Pt 14.866557894564936 11.377182909878247 9.830489147106368
Pt 12.553694955650931 12.254808205243227 9.3864848488739
Pt 14.022342492359833 9.313416084992443 8.47792023664024
Pt 11.744487928522622 10.3562069900715 7.897277271119388
Pt 10.384579189514392 13.25556949322178 8.5322484357892
Pt 11.083742893105336 12.175611206817553 6.392270739184154
