22
Energy = -102.33890143 eV
Pt 8.1645124064633 9.640174625684725 11.956393690856206
Pt 10.688884176389388 8.841925936744362 12.43237568252435
Pt 11.208399652369353 6.871661512646743 10.752140280655492
Pt 9.434249237999035 8.448851585631138 9.920024172338902
Pt 10.234418044061389 12.342994088293034 6.676434369731631
Pt 10.886175143958958 10.669050499307078 10.378832001416026
Pt 12.73441573665215 8.83675499003837 10.544482093236658
Pt 12.19841769451413 11.61503682286879 8.218697300556093
Pt 10.408694465618543 14.71986163136615 11.022848056934608
Pt 9.996768891110841 13.306210769734617 8.993643368552199
Pt 9.790443173934547 10.27271197815864 8.05572784178307
Pt 8.574930016475188 12.001897141777736 10.756859379389455
Pt 8.806094533370352 13.62739864943405 12.705723832519759
Pt 14.685513200715034 9.335380597209468 12.071250692240103
Pt 12.775203933510506 9.140892135141497 13.845124731156446
Pt 11.906428774900219 11.426615954349467 14.67902303607739
Pt 13.9923608961478 10.97991245585182 10.002816881090068
Pt 13.142654666012131 11.417651937160805 12.421340212374574
Pt 12.271241723146929 12.958719382076437 10.476785949596017
Pt 9.922739365934309 11.230897679916405 13.028982671886652
Pt 11.463433692917256 13.348219810302545 12.9991488666349
Pt 7.585826241545393 10.142112620038754 9.36606059797841
