21
Energy = -97.50102312 eV
Pt 7.303541681110431 11.245834879912172 8.33810194078033
Pt 10.400352391302784 12.433378052191026 13.461533651233903
Pt 12.459849318062025 12.169097335177433 14.989511319939176
Pt 9.723969843061042 11.863515611142557 8.168214710962097
Pt 13.5204684680312 8.548466928305903 10.567220341197816
Pt 9.730037284940215 12.526022697434154 10.837687890994466
Pt 11.992254079709564 11.497513862302183 7.134761103666042
Pt 8.709320406267885 7.991617638667681 11.922964796014691
Pt 8.73074078677176 10.515991077735913 12.526805032302187
Pt 11.220911093736712 10.255906945643634 12.491025253181219
Pt 10.407839330525615 9.991255890905677 9.728845752322723
Pt 13.78223735195969 10.74545928742354 11.86592813832977
Pt 14.185743417961412 13.044127939606456 10.450937795956632
Pt 14.024472878589732 12.939601165734917 13.111260480274366
Pt 11.992522784791076 13.370213087045459 11.715714409616766
Pt 11.128643124455829 8.07562367891844 11.204219906157364
Pt 11.822569247140567 13.085647616378104 9.158356753669928
Pt 7.9498203761847375 9.417600155328802 9.996892135170787
Pt 7.308902453459761 11.843799950514928 10.81355464302718
Pt 12.835177843346777 10.741533038198948 9.461716464913287
Pt 13.100421125237986 9.862824547336173 14.157989800561559
