22
Energy = -103.0483402 eV
Pt 10.888435 10.888435 8.641841361801724
Pt 14.300666232959964 10.888435 10.893270808271998
Pt 10.888435 13.01024232541297 10.195131748473985
Pt 8.704870033993139 12.252780612094181 9.005998889646328
Pt 13.071999966006862 12.252780612094181 9.005998889646328
Pt 8.708041833872603 13.108444249491512 11.609181847513428
Pt 13.068828166127396 13.108444249491512 11.609181847513428
Pt 13.068300298054329 10.888435 13.22152740878041
Pt 13.068828166127396 8.66842575050848 11.609181847513428
Pt 13.071999966006862 9.524089387905825 9.005998889646328
Pt 10.888435 9.574053916948838 12.696220697556061
Pt 10.888435 8.766627674587035 10.195131748473985
Pt 7.476203767040036 10.888435 10.893270808271998
Pt 8.704870033993139 9.524089387905825 9.005998889646328
Pt 10.888435 12.202816083051157 12.696220697556061
Pt 8.708041833872603 8.66842575050848 11.609181847513428
Pt 8.70856970194567 10.888435 13.22152740878041
Pt 10.888435 13.262808032427017 7.620760369641292
Pt 10.888435 8.514061967572973 7.620760369641292
Pt 10.888435 7.049353933046285 12.130910266554379
Pt 10.888435 10.888435 14.927363005080016
Pt 10.888435 14.727516066953715 12.130910266554379
