22
Energy = -99.50561443 eV
Pt 13.616777050485652 12.63268415411985 11.118203848840327
Pt 9.08861391630447 8.9928621474889 12.520789863043145
Pt 10.259809843447204 9.097648326008555 10.138821171176899
Pt 8.08890870548323 10.29967007323973 10.619832128079562
Pt 10.445308938516252 7.644824381279657 14.176644922682394
Pt 12.31980196541036 15.905394541253632 12.238291986032786
Pt 10.055082677679113 16.202213732964385 13.276416441920007
Pt 13.601674644181504 15.079497283423798 10.150387184291997
Pt 9.244212236121392 12.398035118097614 11.280417000494365
Pt 11.720400231871011 18.001973065833255 13.462980080988158
Pt 12.42098348257984 7.797606361921445 10.148646429838097
Pt 9.032088082035562 14.860971318413123 11.50546291259754
Pt 15.492612465217263 12.331981683535052 12.996318892006574
Pt 12.196774602302249 8.770823654048582 12.742970735802624
Pt 13.641107217580917 10.041814689835093 10.731010083928503
Pt 14.427046402388756 14.585366692587357 12.576220945629496
Pt 14.246788138587101 8.685922796312948 8.74976978597598
Pt 13.311233742876679 11.03782069091181 13.110096697589679
Pt 11.333465589342056 13.946592434484007 10.887552965566941
Pt 10.66363747630205 6.835259851467706 11.70052630151183
Pt 10.723932613014695 10.929532225523346 12.841446877210583
Pt 11.45213969023356 11.367727983449958 10.322388894326144
