22
Energy = -102.6725696 eV
Pt 6.799741456305638 13.02300775323007 10.730106
Pt 9.357491172128125 9.96689137132835 12.993158112029311
Pt 8.11800455019777 12.267119073892832 12.883722230613312
Pt 13.342207449802231 12.267119073892832 12.883722230613312
Pt 9.458305834438171 13.0436129712501 10.730106
Pt 13.342207449802231 12.267119073892832 8.576489769386688
Pt 12.001906165561826 13.0436129712501 10.730106
Pt 10.730106 12.389261214212386 8.387535713124901
Pt 10.730106 10.562713191189012 10.730106
Pt 10.730106 12.389261214212386 13.072676286875094
Pt 12.102720827871877 9.96689137132835 12.993158112029311
Pt 7.960854794752147 10.638906773367504 10.730106
Pt 10.730106 7.740909651352425 8.63071830597846
Pt 12.277651982254488 8.358125559462366 10.730106
Pt 9.357491172128125 9.96689137132835 8.467053887970682
Pt 9.182560017745516 8.358125559462366 10.730106
Pt 12.102720827871877 9.96689137132835 8.467053887970682
Pt 8.11800455019777 12.267119073892832 8.576489769386688
Pt 10.730106 7.740909651352425 12.829493694021538
Pt 14.660470543694359 13.02300775323007 10.730106
Pt 13.499357205247852 10.638906773367504 10.730106
Pt 10.730106 6.175929354021847 10.730106
