23
Energy = -107.25168982 eV
Pt 14.029164337360097 9.904120956591472 13.628885662223214
Pt 12.829984285882034 9.684861069885056 8.717466690314001
Pt 13.315370481764258 11.892382696117085 10.24104017785996
Pt 13.015769526684451 9.520709488776935 11.273891454113944
Pt 12.220474776187464 10.400279476658241 6.272291947010085
Pt 11.653994721992069 9.000352893865271 13.379567979654738
Pt 10.592428024894698 8.892904572420361 7.542403802387156
Pt 12.286617345100119 11.586172820462087 12.75737603577646
Pt 11.55027308185809 11.91111337205814 8.32845169053024
Pt 10.604284806126902 9.574682508907737 10.268415954581764
Pt 10.797027272998548 12.237910304134248 10.777971875861278
Pt 11.008744023567116 13.053679927201904 14.249689146926308
Pt 9.678269029430934 11.331011083141787 6.674493197351631
Pt 10.118862718272394 7.039504345593241 13.156268952300168
Pt 9.04723780984139 12.734759076623492 8.746276021509233
Pt 9.430263553258087 13.5347086287817 12.447830257295108
Pt 9.42760767594256 7.307972088205201 10.744056390865573
Pt 9.28650416133071 9.46164570643591 12.532985479589227
Pt 8.519480093229792 10.231962261380376 8.725304301029201
Pt 7.832891101075171 13.975699032296719 10.528833771469415
Pt 8.547246533107518 7.667339502636941 8.393413838527419
Pt 8.279207900628448 11.504881349078332 11.408202932895486
Pt 7.451449231276628 9.07449933055679 10.728034931738305
