22
Energy = -103.56105635 eV
Pt 9.858395384625336 7.531495575229927 6.249554668500001
Pt 11.715867848430285 11.288912094662443 7.308225678069268
Pt 13.40879373258519 9.738269308740543 9.090329157217584
Pt 9.412809380029337 10.067665871573192 6.871980424751627
Pt 12.155314420452028 7.237597346220486 9.90461220054657
Pt 7.694442892377864 8.13745856088615 7.558846522316037
Pt 9.74425497876759 6.9924762223060615 8.840042972324653
Pt 11.453598903839968 8.748905351621405 7.880510771799779
Pt 11.86706860541155 11.686352945394768 9.865560496727838
Pt 12.11474177802881 9.404689288600713 11.325491982977157
Pt 9.53221397191523 12.158440545328673 8.500009034295433
Pt 9.896992212325927 12.878127770696315 11.130595283773955
Pt 11.819065454683647 11.74035322080714 12.487612125477053
Pt 10.019465227955992 7.6318866838059884 11.40193122631251
Pt 9.814391321786482 9.862028798353425 9.894577124438301
Pt 7.4460326208048215 10.469554659629948 8.638234944366765
Pt 7.698022410952001 8.123393362227635 10.141477194190033
Pt 7.458573223021536 12.620551972018566 10.110573182697133
Pt 8.41333613703848 10.992840960140915 11.88589867135064
Pt 10.231009687390355 9.765397189237168 13.122966293995367
Pt 7.891744050089561 8.585005204818929 12.694508720793193
Pt 6.198137712826412 10.12590163325576 10.911555894395116
