21
Energy = -98.14057577 eV
Pt 10.447990524226807 13.173588050365124 8.861776794402918
Pt 12.915924498277992 13.526748688660794 9.923222526145931
Pt 11.796709077416642 9.194099209286689 7.544862415408756
Pt 12.466164721803597 11.21087806911146 8.99302789035962
Pt 9.939280221660328 10.640529241129125 8.513932213415664
Pt 14.831922421595376 11.728641470844515 9.907265243536246
Pt 10.48551498774904 7.294151024167699 8.689903007942476
Pt 12.169918101323859 11.718354003180787 11.607334385244584
Pt 8.176082318028659 12.121071384986704 9.481587945045874
Pt 10.498052163878492 13.606108782072369 11.418624625674537
Pt 6.552502964150999 10.175504293506302 9.771806528307389
Pt 11.46922877532152 13.056143254943326 13.719895681428243
Pt 9.14004174016204 11.496459662317168 11.722136954960456
Pt 8.30733769300746 8.678574723282338 8.700610856357667
Pt 12.210040965911636 8.667166504175443 10.105994142747793
Pt 13.926834075803793 9.93027672896859 11.484051333374037
Pt 11.489702444962202 9.376107784104168 12.526414035161224
Pt 9.683993779438545 8.750375417472783 10.786888841478552
Pt 7.607231368819321 9.49365749710296 11.969726965063312
Pt 10.086582654250218 10.986435616845691 14.003396055666979
Pt 9.239308151947998 8.615492243212486 13.70790520801427
