23
Energy = -107.22776571 eV
Pt 13.425599792259744 6.925849510512645 13.111503557140363
Pt 13.971962578634617 9.184193832679178 12.278937462715998
Pt 13.504703744226465 11.699582561173186 12.366183588304654
Pt 13.035731814432125 11.468916594849503 9.898819087702948
Pt 11.164955911787242 7.440230560420712 12.304798126383838
Pt 12.382201204773667 8.938924448815202 10.242337813278482
Pt 10.799474776127566 12.005541803889852 11.018678581512578
Pt 11.560686689740939 9.978313204934024 12.54029236186437
Pt 11.256731502519237 12.83237807872766 8.62262259597192
Pt 11.672626466901612 7.779584828242554 8.00613155533823
Pt 11.59362593680201 10.32356802229694 8.081423179830802
Pt 9.266995058743145 8.835447035023366 7.718780147016567
Pt 9.031555199195891 10.426319711106435 12.188629399814348
Pt 9.337878019113358 11.424220593601639 7.573143037604611
Pt 10.07284656579264 7.598970224520698 9.981093065851544
Pt 9.474414936541903 14.029398456054967 7.2815654877860005
Pt 8.586398107642976 12.893036972314784 11.84289545632069
Pt 8.655340784841782 7.9394039223710235 12.085063185804518
Pt 7.391320495391511 11.477586160392965 10.121793908372345
Pt 7.024750674428285 10.228026657458773 7.8168207827350615
Pt 6.560795464194247 9.722398731365077 11.849533218345023
Pt 7.338953982305481 12.913993711532125 8.107054454615456
Pt 7.717554443051325 8.761218527164026 9.78900409513743
