23
Energy = -107.55094222 eV
Pt 8.018382990665357 9.45292145221372 9.461787043815749
Pt 12.036999813052985 6.492148472051128 8.468077403738995
Pt 10.977331525417004 6.935314651217594 10.692297690653044
Pt 9.892219486249726 7.984434111138406 8.640241089055039
Pt 10.185259021661837 10.585066566680588 8.5509001239136
Pt 10.329843798417615 13.199479281035572 8.681565140006207
Pt 12.3365788975311 9.052540850755413 8.26685626238891
Pt 12.207361076093663 13.378127728114313 12.655184464909349
Pt 12.18929950397948 9.232014945822439 10.816249577960912
Pt 9.756947944277433 10.035494478389706 11.298121300401531
Pt 12.19155140673061 12.311263609447028 14.986978024867206
Pt 12.541084221096703 11.759124914940521 10.602728099687676
Pt 10.89867422450826 8.324073520104026 12.94719542012628
Pt 6.24392100232134 10.75294675487784 10.747404981125882
Pt 8.076064201105103 11.72336088630157 12.263162747926943
Pt 12.534978157948741 11.572214813361093 8.112802877936137
Pt 11.592186705852388 10.806875616743522 12.924651481052093
Pt 12.657460686227328 14.106491816401178 7.771288094089742
Pt 9.88211128913711 12.562702959512515 13.799482514896322
Pt 10.953996555407294 5.83671267740862 12.904244223920282
Pt 8.246774110589982 12.07012000308131 9.616044954414436
Pt 12.096797594039835 14.287945525604421 10.275482196271989
Pt 9.907375238205242 13.291823815313304 11.270453737357803
