21
Energy = -97.52124963 eV
Pt 13.494519592238586 8.662840668817624 8.838185350922558
Pt 11.414837843633718 11.799724372306779 10.778811041251569
Pt 12.276018750334748 10.886185209746023 8.564139295258789
Pt 11.86579583696672 8.891280979844478 10.807874425640907
Pt 11.515703418574404 10.536126420644354 13.045662604088307
Pt 12.516098489731474 8.236007445501906 13.247585936165542
Pt 10.359251933427617 12.828006045232568 12.902724444805795
Pt 10.344307948220106 12.676597015608255 8.558406832414677
Pt 11.305399628212042 7.348601999383105 8.799606891912545
Pt 10.227133373618226 10.95182112078008 6.718004995403129
Pt 10.094528082528544 9.576263115818909 8.885165438183725
Pt 10.042879874225026 8.43366000342644 12.524820922761391
Pt 8.908853476616388 10.849459461809568 11.99869531337033
Pt 8.90334632140809 6.613795712333031 9.080804607349723
Pt 8.979040814331086 13.187446365757186 10.747146474692578
Pt 7.97737032385851 11.009688023456656 9.52692720606306
Pt 8.898627606170361 6.346570401170908 11.601550644308025
Pt 8.290529172400358 8.709111563993723 10.68945824750209
Pt 7.6897185330976265 11.099676831340497 6.962640996598644
Pt 7.816087709785453 8.722926084888497 8.035460316492008
Pt 7.853236363244925 13.407496250763412 8.459613107438598
