24
Energy = -114.30917003 eV
Pt 9.965504718938872 12.968500266718127 11.0483081486651
Pt 9.399353806407959 8.899422341700218 7.86417123610684
Pt 9.720926986292465 11.354898622588603 7.325645321159419
Pt 13.539406861102218 10.922820753681325 12.48975141846745
Pt 12.096867629317662 10.98839103863112 8.27969884534735
Pt 9.370777238654753 7.807273748681288 11.669360240433782
Pt 7.170265995292482 11.050836996691519 10.531688746903823
Pt 11.367061272229405 9.580842572565947 6.239720516413547
Pt 12.352148521618057 12.200743822738817 10.565147094645992
Pt 7.46442355068683 13.557276324283492 11.33611034360856
Pt 8.468546988868248 11.58602473784233 12.676249058420455
Pt 11.656061233190496 7.035665808971085 10.710298586176233
Pt 7.194618599609451 10.512163864628613 7.920656736472201
Pt 11.033422737413321 13.347250341055965 8.676708322886558
Pt 13.284759287734705 9.733158243410292 10.222160342824983
Pt 9.506138382232917 6.720667941507037 9.27786387186748
Pt 11.797048147594886 8.30753481622246 8.457381583029447
Pt 7.184176828669396 9.19893018660437 12.428028227817775
Pt 11.091832831270667 11.599591872315395 13.000593550186144
Pt 7.865239915807623 8.769639687310036 9.83210626045108
Pt 13.953961420548476 7.353090947097251 9.71640974182146
Pt 11.50363093926167 9.272902966097964 12.006806704998226
Pt 9.518365044600632 9.499996536678822 13.651967379187425
Pt 8.432457782508246 12.669372281829364 9.010164441959388
