21
Energy = -95.9697194 eV
Pt 11.497553052336997 10.082036057442728 13.39544016980729
Pt 11.240404675732398 13.710963540645317 13.220226640770605
Pt 11.292323221088601 7.946163363407912 9.93556017931162
Pt 7.8720694417888595 8.22511535466315 10.574453802532965
Pt 11.142613970740154 10.396721720995968 7.45125885084032
Pt 8.315902165950938 11.876690642124053 14.00486833243624
Pt 9.9951406660447 8.400993073635497 11.996912802546154
Pt 7.788570115329456 13.207811406898234 9.894717644685793
Pt 11.477055184368144 7.756748513464441 7.384219745214163
Pt 9.545176267597952 10.884132715949136 11.944692408603634
Pt 9.036681140531769 13.370301137200917 12.04137346177828
Pt 9.323641643703244 8.745608951922767 8.542472551620909
Pt 13.574297855508632 11.173505089054634 7.1509257475034405
Pt 11.197707042297008 11.061432066435565 9.957011351614122
Pt 9.122495020205944 11.47107546147166 8.5701079556284
Pt 7.526051736671973 10.716560393760274 10.440913129257998
Pt 13.285377792364818 9.115772494780309 8.696785442652153
Pt 10.662710061341341 11.949068399034777 14.893898320514625
Pt 12.611713063485539 12.047470857235771 11.954991450052077
Pt 12.941227489102973 9.538087240052018 11.313245928701763
Pt 13.714618004577273 11.536716635467869 9.676132386997702
