24
Energy = -114.3029333 eV
Pt 12.09225143113861 7.031382543903701 10.414579727389047
Pt 12.22727386638296 9.585969480389867 10.94341267988885
Pt 11.487138963918605 7.919798680681271 12.89381418619106
Pt 12.317296158276205 11.241361902913923 8.892383477787861
Pt 11.874458918303304 8.71187296961438 8.432914117179505
Pt 12.655835508379438 13.794148532684787 9.497281773762005
Pt 11.306068246917008 13.072221826205501 7.268245315417201
Pt 12.021661257252326 12.176327571036019 11.378845921383359
Pt 11.298242054626678 10.451895927310673 6.597109205022266
Pt 11.30114211620175 10.549664340263387 13.209623516487632
Pt 10.255252922680274 6.514058607389909 8.576819256560308
Pt 9.657097964840354 7.297666897026906 11.0635270001072
Pt 9.128213214583898 9.172238362424368 12.828994520265727
Pt 7.882347606168256 7.429905387741931 9.106363830306215
Pt 9.29718906610546 11.501114773262177 7.848319764559995
Pt 9.380835476148048 8.721442328442249 7.3540722258324545
Pt 9.734602638066196 9.740860045104048 9.824992831188274
Pt 7.221031993734546 7.709017030090915 11.792347297739806
Pt 9.408228042270219 11.631710385510651 11.689685993829947
Pt 10.145932772895563 13.21787657837754 9.683509150427355
Pt 7.274464599504604 10.20530653623893 11.172391797248247
Pt 5.636473783735657 8.540010461612777 9.870101665332145
Pt 7.727070278180028 12.36500098220258 9.772694725431954
Pt 7.3200816808407865 10.016863904465245 8.503821582269293
