25
Energy = -118.76117575 eV
Pt 13.678747160537325 14.083040702725462 12.452570386918993
Pt 7.058019780458879 9.707703398499564 9.896409811784709
Pt 12.152500029947907 7.442536556006751 10.193019046774655
Pt 8.162204107187732 10.628024585955337 12.160022243176908
Pt 14.175590967336843 10.433017018733253 10.600703076774268
Pt 9.623933502626281 7.47052500562897 9.389861695731335
Pt 10.064566530641686 13.106353391996361 10.41726564734033
Pt 14.01399837823335 8.67611161323291 8.757430753652502
Pt 9.239157022663596 9.043921067770194 13.920797950300548
Pt 10.580934661464122 11.044775375622368 13.037427080225715
Pt 8.726493201433131 13.089359163676635 12.594028179435192
Pt 11.480295129297525 13.209705825491529 8.284687319793168
Pt 7.144136715387543 7.166114107138135 9.746130127720646
Pt 7.705338814568758 8.062178970388759 12.045926600492898
Pt 9.107761009672467 9.903201135231429 8.504586103949498
Pt 11.457024732928932 8.987881706267235 8.313097208856629
Pt 12.922125072852056 11.101015177762157 8.428463229929944
Pt 12.734884168992435 12.73430930928172 10.480407870770383
Pt 10.808152610641304 11.037060633395368 6.88106974678723
Pt 11.223646435793158 13.54442067039935 12.711832946547013
Pt 10.202440772913631 7.850697167103156 11.86520574302366
Pt 13.223939244534161 11.562986723768931 12.769443971764302
Pt 12.17358812889432 9.44614447236106 11.796555745832602
Pt 8.938143282400134 12.397320580657311 8.232976533875284
Pt 7.428949935807707 12.222902321823852 10.307541760410873
