26
Energy = -124.67845648 eV
Pt 13.955331198079215 9.20806584375344 10.343482420073448
Pt 11.30359572202517 6.836054642190288 13.111196212213963
Pt 12.094416848776742 9.344414154436498 12.166178360997511
Pt 12.353972168902015 7.197091615965752 10.798086265359618
Pt 12.367869785430399 8.449898806213481 8.421318176020383
Pt 12.535342114668607 11.51890897930173 10.792867693850859
Pt 13.2930363809114 10.911882141210562 8.422251818646467
Pt 9.131588612512061 7.745239795102138 12.116601782526054
Pt 10.267116151089015 9.180296863646198 13.895700818188127
Pt 13.270327315918655 13.351044984483696 9.122309908347606
Pt 10.917645066737002 8.936056727072046 6.399336312425928
Pt 11.53600375636032 11.667731478049962 13.191354295698538
Pt 10.136743573593327 7.764986499580562 9.689517991091499
Pt 10.841879833427228 11.037121482902723 7.837123883857335
Pt 10.113864271411869 10.229046919797062 10.37997972026754
Pt 10.79477895128758 13.40942907827547 8.758973494807357
Pt 8.76824548946716 8.629110355184915 7.704833328922501
Pt 9.01461989850032 11.174596415295415 12.958722564675007
Pt 7.563118853024945 7.7531320341765015 9.92107367701068
Pt 10.075224399520001 12.676907207224483 11.123959220774145
Pt 8.424153057085054 11.17841813140625 7.227245181821567
Pt 7.669589558540446 10.370286674274263 9.495225250612286
Pt 8.412730755751078 13.595600633228171 8.021839004903622
Pt 7.283768091442994 9.519793542611282 11.842156927047423
Pt 6.693323422490536 11.9662197186756 12.438131894186677
Pt 7.633110715837094 12.800061268731595 10.27192978846396
