28
Energy = -134.49906183 eV
Pt 9.925583645061934 9.830233320033072 6.180406323823402
Pt 12.082493376890325 9.704919459532613 7.5704119820759646
Pt 10.751426174176105 12.116475687556242 7.560660221923896
Pt 12.818906498637864 11.813840196052222 9.261970083226187
Pt 14.124979005001764 9.30990293143871 9.155348819056943
Pt 9.990376543523062 7.84204614269164 8.085903750641421
Pt 8.035661770525104 11.554601033828988 6.819301856985317
Pt 12.40237323409512 7.283912805647741 8.89667038099327
Pt 7.678180759285171 8.955725147856484 7.3421356607368535
Pt 14.1643692202647 10.732829437429322 11.351668750647212
Pt 9.515612033760583 10.348805326027163 8.906495697015128
Pt 8.363622378907506 13.2332826360397 8.767386824369645
Pt 10.474278321430402 12.821348775579132 10.157508146632225
Pt 11.671768343117648 9.74043686698181 10.221151839744712
Pt 12.51852021759776 12.748410114931943 11.777138656928337
Pt 13.223824823553981 8.12754486448668 11.448994785223086
Pt 6.992922131258067 10.95161608196415 9.233510511116828
Pt 7.903731023835814 12.6439704715753 11.231633964837636
Pt 12.036638407170608 10.397690279727273 12.831441427451232
Pt 10.453644339332232 7.477776932960959 10.677388805664767
Pt 9.504990820393102 10.345469035444674 11.455843602519641
Pt 10.181970441608176 12.533268290047562 12.839906617768936
Pt 7.956620029997345 8.436855611352799 9.916560150252623
Pt 11.189088525795613 7.942254701622171 13.17570179479577
Pt 6.9868706045179 10.109189372517143 11.782398332109704
Pt 9.660141973851063 9.982055786134065 13.972792280210815
Pt 7.782917136663052 11.781627095479681 13.695989344420125
Pt 8.581984985990944 8.03587499730818 12.454778189292098
