29
Energy = -137.27540786 eV
Pt 12.546006870599754 10.577666439088075 10.593335537837518
Pt 10.424444755266006 6.634245718904116 8.68806479314215
Pt 11.9793416456657 13.906221517617118 14.27475350560155
Pt 12.88575049843904 7.1218469106006435 8.774183523274784
Pt 12.309721325952038 11.433021812913983 13.807178169186265
Pt 12.022983055190984 13.724945060405489 7.300044638887047
Pt 10.803713801162674 12.14079381510989 15.899792542031234
Pt 8.532838493168008 8.818492364059104 9.497383095835307
Pt 8.58314346873306 13.026128553202817 11.324203962435064
Pt 11.772835588534242 11.34664038130758 8.1293467944238
Pt 11.698876014592352 9.13167091360805 12.725704188413447
Pt 11.133389039690691 12.918257324435258 11.769502302956697
Pt 7.3245065139465755 10.721818860769671 10.564809374016027
Pt 15.266131299236555 13.366352083013583 10.448603082362373
Pt 14.289415129170726 9.258025049918563 13.06184791443769
Pt 7.7680535967123525 11.244699519673485 13.156817765349214
Pt 9.937649732199791 10.969860470445163 10.206952634102361
Pt 9.908309194172562 10.314531491085633 14.226318245879947
Pt 14.307201798283756 11.596615746957513 12.178482060048983
Pt 11.175895420224489 9.000007036917955 9.008457373664648
Pt 9.525587515563084 13.010757249827934 13.834978398194833
Pt 13.508947218712807 14.060343940701994 12.216905757607194
Pt 14.427915911179761 14.206510682445277 8.15767078310681
Pt 10.25402139416382 13.472717780598773 9.29487763635302
Pt 12.8057910945091 13.157899764160458 9.810319666089299
Pt 13.384753014451336 8.175194243901865 10.987771599009852
Pt 6.063658064066381 12.577975730630529 11.798590669040957
Pt 8.011890369876507 6.800353583612907 8.21368208369274
Pt 9.270934747287114 9.210112524837527 11.973128473769822
