29
Energy = -135.5165493 eV
Pt 14.646882978436356 7.692024895213705 8.603586304133854
Pt 7.509352651311908 11.529095505582985 11.828859794521517
Pt 9.60045682770854 8.084031313091474 8.407386307320614
Pt 11.983012161434264 11.699666924181166 14.176338800352202
Pt 15.42503478553559 14.491989213780757 13.35036798956831
Pt 10.632831108046915 12.573429473297333 9.08543186134096
Pt 13.909337964345108 12.598084360195605 12.775837855649964
Pt 9.47686885417956 7.610081712849934 10.965559126569072
Pt 14.469114693427413 7.797839608286013 11.135910223617477
Pt 12.343861433404438 11.77546834387273 10.756276627862567
Pt 9.943042469499863 14.999483278133171 9.45119989031179
Pt 12.161980500493955 7.903860599114748 8.34740666433067
Pt 10.904467833166693 15.856605718399758 11.604677860276873
Pt 8.855724007723355 13.737329157922563 7.546754903543055
Pt 11.95752418898702 7.804170955126194 10.933403947019109
Pt 8.943691845330694 13.749831878586996 11.47192583457004
Pt 7.540408079651635 10.521680934044111 14.252356730615878
Pt 9.294690652857959 9.505812362633998 12.61240352620924
Pt 17.14326633100827 15.368310687381173 14.640742577146781
Pt 8.505452055559774 9.859140925020066 10.054961349837715
Pt 10.965515765696043 10.050026345502824 9.470085600966398
Pt 11.876050871134325 9.713038528224072 12.586597526003983
Pt 8.074529244473348 12.27704195072273 9.452392136815885
Pt 9.452728106646278 12.130706693867017 13.51749873691993
Pt 13.595233008090052 9.930106555884812 9.413445419995874
Pt 10.169662672072013 10.02986197295865 14.967119737408842
Pt 14.361918348960172 10.247646494343428 11.879278760108313
Pt 11.302430866059447 13.545555147680728 12.480896705786042
Pt 13.237196057889225 15.200344827230994 12.51356356432741
