24
Energy = -114.08377064 eV
Pt 10.695095088302015 7.450656586792349 8.399235293577092
Pt 10.67020770833245 7.962143720191282 10.954321725633466
Pt 8.61935183556919 7.145725788383624 12.342038272770939
Pt 12.478143906050638 9.234340848286081 9.287699693142656
Pt 12.780463990100056 9.22462716143875 11.93285432495739
Pt 8.403555972113072 7.675834817748864 9.71957975693375
Pt 10.52889565055499 8.99224276773926 13.275113968380522
Pt 9.420645064822496 9.615879173915678 7.994665254305868
Pt 11.659597915234155 10.364432260979575 7.048977790615452
Pt 14.26748922409287 10.654598039646674 10.375477103900371
Pt 12.710082041024735 8.047986910980436 6.968434243971681
Pt 10.397081033175109 10.513248188062866 10.202181180993879
Pt 11.685931937226293 14.881439073382865 11.048309071016451
Pt 8.59050430802712 12.034021612135154 8.136553202420512
Pt 12.943465308158956 12.694977039040833 10.809188250941254
Pt 8.040822193327228 8.999697299432862 14.150891505949616
Pt 11.45895046677082 11.351511843950025 12.378524577544063
Pt 7.746685112335063 9.495704914009421 11.651880134326744
Pt 7.17562016262948 10.073425615532134 9.220598474204353
Pt 10.826039040149283 12.708242797022761 7.1012535584671
Pt 8.924661385472017 11.29606989442433 13.258183132722314
Pt 10.602493249859906 13.034544745247718 9.596456991346574
Pt 8.227930712108998 11.92380057634654 10.772682073974758
Pt 9.915500455754387 13.394062086501092 12.14411417909437
