28
Energy = -135.29687804 eV
Pt 8.37611933809897 8.817345552401651 14.875281718192893
Pt 9.639581518003077 7.8469394720098675 12.734299777759906
Pt 8.42381594888523 10.882542213155858 13.254531989511861
Pt 7.185917490050276 8.572792279413793 12.538616968570537
Pt 10.724512038482876 9.808121844817256 14.267656259956292
Pt 8.566533779391163 8.063236849143676 10.274543114605287
Pt 8.999788581525213 12.518120676413082 11.23050581133527
Pt 7.408208205132229 10.491897589120683 10.781704612362748
Pt 7.738679576124544 9.623431281525207 8.327472622315593
Pt 12.219827667765964 7.946364410473831 13.068380384573565
Pt 10.69116748655302 12.218377351504259 13.28430417891866
Pt 10.164160070971201 10.12097308709607 11.244931884507055
Pt 7.9027613813330975 12.229314744770686 8.906464324062766
Pt 10.62150658405933 14.468448659079773 11.990459749002197
Pt 13.74890503705891 8.618958706637406 11.030415122927813
Pt 9.747307553264402 11.106217786393579 7.54920154918399
Pt 11.223714589223219 7.813057481927264 10.59433721226455
Pt 12.521550781353307 10.477376413436643 12.434516422149217
Pt 11.725697289234844 10.999513482918767 9.430920859532028
Pt 10.973500448770295 13.519378288328088 9.60333412556502
Pt 12.64141753223062 12.94026654067775 11.484806780923389
Pt 9.44149824327554 13.793284680701616 7.549098026536214
Pt 14.20078797561977 11.166787568288521 10.41618470266284
Pt 10.147268670567207 8.617181649988163 8.266104614822622
Pt 11.781878489910431 9.895434321188523 6.492733712462668
Pt 12.76301808664378 8.76937681218017 8.640628015485696
Pt 11.799897071915959 12.692983629630707 7.259460757415256
Pt 13.799135477296259 11.118351148031715 7.828319330470624
