21
Energy = -97.79536093 eV
Pt 9.474693021409688 10.566935439337175 7.19137282855256
Pt 7.2345364483295755 11.048646629940071 11.848947230123393
Pt 8.684648803060316 8.913766370449817 11.76540300129955
Pt 10.15387354757255 8.600714369010998 8.72203881949385
Pt 9.927511943501424 7.039862499871556 10.665946406722988
Pt 12.864211371964137 8.381074285862784 9.110233006756422
Pt 13.930865516743923 9.603264574438061 12.308947914173727
Pt 10.671363779222682 8.850963151181473 13.662252284246435
Pt 11.826123889617335 8.515294064414471 11.424183473232983
Pt 11.863245895894003 10.608500140769966 8.253146563491224
Pt 9.567360731368547 11.10058038570691 13.027462426754518
Pt 8.584229052196608 10.44888792452409 9.667551481253048
Pt 8.936588653592809 12.85806829045806 11.10897316098717
Pt 10.118075957324752 12.601564517648006 8.662047654248187
Pt 10.989219873093695 10.962294617997001 10.761717792115169
Pt 12.751986041025726 13.050348891875373 8.849667157501187
Pt 10.78318583152475 13.469186417804217 12.951569700910216
Pt 10.958941355373193 14.345421046493907 10.403655864424636
Pt 12.895238599598807 12.98282280340379 11.471014742798102
Pt 12.145196653891947 11.1790661517621 13.185590055281999
Pt 13.610114888492834 10.870996329882347 10.136946641211011
