21
Energy = -97.20803328 eV
Pt 13.950633970770044 10.899334982373494 8.259640798931217
Pt 10.912110639041828 9.456367464990647 6.837438199771474
Pt 12.143624883102042 9.26113987539968 9.053491121053101
Pt 11.944532255515261 11.777739327039715 6.945436579488001
Pt 10.237479127111548 7.764784435961253 9.735366583875514
Pt 12.247718056842563 8.180826363951319 11.375056330267496
Pt 9.92773238732471 7.14674072243414 7.229359538742835
Pt 9.722135927727278 11.484078181026039 8.192320883083802
Pt 12.005498195981662 11.76504249414376 9.660852256684207
Pt 8.56655455132462 9.071625963818551 8.165994413743295
Pt 11.986618476371005 11.920569764882773 14.75302002302384
Pt 9.940943914338174 9.195755997023978 11.88586172786603
Pt 7.736155815749263 8.601421339574715 10.583796249672464
Pt 11.443507467937716 14.053175973226482 10.6645053530926
Pt 9.661029642706476 12.190566198210009 10.744795012917413
Pt 7.637621608524279 11.007737697808949 9.598158287456922
Pt 12.037691684492902 12.095810280502288 12.17971171819223
Pt 12.040306130736154 9.81650927905759 13.2918271027912
Pt 7.7630702812014505 10.658835122593427 12.186337835207832
Pt 9.829564420625383 11.543955282954931 13.455960787318713
Pt 7.579927000698124 11.422439691149052 14.515525634943064
