29
Energy = -140.274323 eV
Pt 13.383388735995975 10.529953727563877 13.430763683193039
Pt 13.988626314643996 7.963401133459017 13.293829251933277
Pt 14.46684134336171 9.43550686064691 11.113067637984042
Pt 14.497940858479852 11.981891323109217 11.511400133662264
Pt 14.160457801314998 6.891010382488336 10.84336492820432
Pt 10.633602587316144 11.102854136432539 13.839138901924608
Pt 11.637212294202028 8.7426495793678 14.269247798987962
Pt 11.695020278698355 10.36397849609813 11.431333135073587
Pt 12.205636921016307 12.763711143253127 12.44757566458992
Pt 9.626064993668187 8.87040921988478 12.582261633742903
Pt 11.84523583593027 7.631151257346034 11.81225898318816
Pt 13.003434626506467 13.617448112436932 10.05686720466167
Pt 13.198037510900578 11.041212244507348 9.37509819495616
Pt 12.690143366488982 8.434649681284217 9.324990407628672
Pt 10.130040197142229 8.445971732324873 9.986639093980733
Pt 9.787953935583568 13.449278098326694 13.094294786910794
Pt 9.773318871944799 11.258942679961695 10.048623472970496
Pt 11.347894426967567 12.67651052399175 8.278120053067717
Pt 8.419259242921303 11.293776879910252 12.30708162257815
Pt 9.494440723603786 11.619822264867373 6.790362038428658
Pt 11.118934162756158 9.95240021385283 8.001897137141883
Pt 10.451383956085518 13.780099826795755 10.540552875980339
Pt 7.7446574940560025 9.155818966542135 10.875456664843806
Pt 7.935677024149112 13.684031115604 11.217192813007745
Pt 6.915638055595607 11.50910927532082 7.485126140819587
Pt 8.496886249629988 9.573978625192748 8.261958966510207
Pt 8.574037481729023 13.166327883167273 8.700628602494357
Pt 6.835518529488769 11.60302605845345 10.163377370190998
Pt 5.976021475649463 9.483580184341205 8.981245113675596
