28
Energy = -134.14043724 eV
Pt 9.806374327987838 13.574617713349454 15.00822926684349
Pt 11.546070142148904 10.989605268457405 7.712775202068217
Pt 8.939376134958232 14.87522456594846 10.137076069213757
Pt 9.534958520435415 10.805504488951781 6.289202835911063
Pt 9.937130974447065 12.542575122947175 10.248587761071988
Pt 15.358904206370285 9.454407487870819 13.295896769234517
Pt 15.456206653480193 11.293466761307707 11.514056202731272
Pt 10.657783379949102 10.804612315078252 14.733069807489667
Pt 14.800181259177206 11.87724982307559 13.912983097253415
Pt 13.570766743124056 13.454582442157387 11.770085274315242
Pt 12.600758020188254 12.409858612298965 15.188031071120381
Pt 15.04030132125282 13.031890882984568 9.691707433184964
Pt 11.799329045687852 14.272314409091743 13.476467407236091
Pt 13.586352867663996 10.396263485140746 9.089246559771698
Pt 10.924868738340335 9.364810513712223 12.616459929837177
Pt 9.048298127166102 12.062879758556416 13.03400686856024
Pt 8.792586331577509 10.230339605156308 11.216984005732272
Pt 11.378733311555534 14.574709681862876 10.93252429785006
Pt 11.20947916791359 10.197909092310962 10.175570321685056
Pt 8.565496340201959 9.607491863389054 13.740111372415326
Pt 13.276035127920482 9.879372255568835 11.633209794673933
Pt 10.748442060950618 12.120527942690263 16.91236972356596
Pt 9.377036667385939 14.522622776741432 12.652884068309474
Pt 12.967015790984716 9.806681184572987 14.196660931500775
Pt 12.482138753427249 12.749711400548433 9.484079635746161
Pt 14.223787716055405 14.296651166878657 14.250881227358597
Pt 8.998260059534118 10.74267891504459 8.722814162871098
Pt 16.09116729296709 10.779279547159428 9.081867985300459
