24
Energy = -112.7164551 eV
Pt 9.912763255935205 11.648845328396519 11.600679232619749
Pt 11.274181357811909 9.840153040396348 12.917041588479796
Pt 8.866182405877176 9.132570254661037 12.11541611891363
Pt 11.024908510449894 13.108933571093411 9.692639516756273
Pt 7.31898356453729 11.208624262258844 11.747726419887654
Pt 12.500018741186507 11.348367300977976 10.937156058066062
Pt 10.879316721979409 7.352990767415319 11.808358652999207
Pt 8.328712364582794 12.790175629839204 9.733715103159286
Pt 8.643629353118023 10.236870968166217 9.46963914314301
Pt 13.251108757072565 8.762280141969557 11.579759377838766
Pt 6.719515678247632 8.786683935554905 10.541588580682102
Pt 9.749813278244496 12.686310909129514 7.467882652601707
Pt 10.94190797985887 9.3642966241663 10.180786451185316
Pt 7.344329530004248 11.824063909879413 7.282260649074312
Pt 13.476680281751014 9.469520980467655 9.015560457655097
Pt 8.347831114763073 6.794253158330118 10.989167140201827
Pt 11.565953614142602 11.00326401696238 8.187126614642818
Pt 12.756417589804764 7.025046000303665 9.72129177522185
Pt 6.058484628713934 11.240674954718619 9.456484085016887
Pt 9.296388091762358 9.950890783062968 7.035118025626744
Pt 8.578844448649475 7.764573325247608 8.534975506317021
Pt 10.359528651776266 6.15940783056537 9.4741195416024
Pt 6.671061293730681 9.308105626872061 7.722384492943317
Pt 11.204683531861996 8.304731114061752 7.885778426609543
