21
Energy = -97.41108612 eV
Pt 10.33219637682711 7.094061564301307 8.784666416640144
Pt 6.916725803099522 8.645922469024855 11.896902361771865
Pt 6.667759653095503 11.403835768719384 11.984916777023896
Pt 11.835350026258569 11.214321504346524 11.783480853142967
Pt 11.358454220967644 10.147855712758743 6.295548984217601
Pt 13.084084340255995 12.552548860397303 9.955958207671546
Pt 10.427651625159163 9.289493780346513 12.872813279528627
Pt 9.292279877554993 11.546813868214821 12.201478805346195
Pt 10.579422251118773 13.048526176141324 10.452567707589703
Pt 9.223172963531045 8.116415682690967 10.856323157241377
Pt 13.049409011100712 9.090650892163985 12.68726975575431
Pt 11.817373703945297 7.86831935284653 10.766861393647146
Pt 8.126384894790851 9.873981027794047 13.790244160738323
Pt 7.9817491794011 13.41298463264172 10.96004068567052
Pt 7.868000276690892 10.180237082135687 10.114805978239925
Pt 11.19439668412577 11.740813992357369 8.280994341988007
Pt 9.52399971316732 9.630910399548027 8.223146798661976
Pt 13.59398441890707 9.912086704136772 10.314519184619124
Pt 8.710432185333365 12.15078572548794 8.79993656904173
Pt 12.06942927796387 8.889294739187084 8.375357731851706
Pt 13.614811815462923 10.867478793184548 7.898347905586309
