27
Energy = -129.52001538 eV
Pt 12.041758603100547 12.48076002274675 11.718720773877353
Pt 12.552412059834328 14.55571012543792 10.161817342779472
Pt 11.172030566535343 10.312808555103794 12.834633413981605
Pt 9.454414507688355 12.353492106457583 12.407620469558148
Pt 14.14071010729683 12.301131135456579 10.236314087085724
Pt 8.91503218807406 10.486715996867616 14.151613825819972
Pt 13.279856054244235 10.012802640415899 11.315922202129068
Pt 9.537269378727979 8.103127956296541 13.102525667137254
Pt 11.972679067188329 7.902808786022188 12.221457856064772
Pt 10.932485813468547 11.851285785604555 9.479791699734982
Pt 12.632501853625497 13.095711428343897 8.03232409429303
Pt 9.995498285656113 14.03160702384385 10.551908966717383
Pt 10.018388751553344 9.6371859070157 10.541776857373593
Pt 7.061333351471269 8.595132799661602 13.654077429972833
Pt 10.257458913756523 12.502738914164016 7.108782429118191
Pt 8.323071956573203 12.027958182805898 10.024235457683108
Pt 7.710579492482197 10.33789130547281 11.834963901658005
Pt 13.069339314160619 10.578301944602496 8.670982898767164
Pt 12.152651680687047 8.263013436265403 9.663168968522495
Pt 9.993955344654454 6.990486614885504 10.748528437706183
Pt 7.84090041608904 11.564069831525623 7.586997906435459
Pt 7.447524337447337 7.72156401408594 11.276589185073911
Pt 9.881986557438346 10.009802918647125 7.493746591841384
Pt 7.754707768126643 9.450458092295241 9.236960250931856
Pt 12.101558984167806 8.821110191521468 7.097674267374502
Pt 10.118358890017506 7.519555399810717 8.104665576569735
Pt 7.8802173510189455 6.769378614199365 9.003357164970046
