20
Energy = -92.25035541 eV
Pt 7.361546895957865 8.905410200965564 9.257603299683927
Pt 12.676095751218185 12.714736689746667 9.726721805618677
Pt 9.474532448830708 8.89819295740922 10.552741497794727
Pt 10.877088942064917 7.287675106669054 9.16030411132092
Pt 8.756778861462369 10.207489996141913 7.519358636459092
Pt 8.259802606175995 12.40933654779118 8.708454296281136
Pt 11.663953783462082 8.344888084597079 11.701218948865526
Pt 13.154857517339924 8.923424346649295 9.54854016396315
Pt 10.740876594646052 12.142149843335117 7.899690418554349
Pt 12.696669054022033 10.708605904827813 11.235319420565471
Pt 8.075221394041971 10.743792629653214 13.37818074548708
Pt 8.86186837444013 7.605661963495808 7.567132981962198
Pt 10.139232419247536 12.37145770165261 10.546162818910076
Pt 10.989639603914503 9.740358569277758 8.587821364448597
Pt 10.55093401075833 10.916797272339016 12.704124808502778
Pt 7.091283646915428 8.711512739877804 11.87876003411631
Pt 9.507708171567236 8.588818118652336 13.213960202051146
Pt 7.918491225258804 11.046799749384794 10.857787820518453
Pt 12.036084789318084 12.989109782100158 12.243727480058036
Pt 13.156682036213596 11.059279222109348 7.812662054930995
