28
Energy = -134.7726889 eV
Pt 10.542425344565972 13.047462447770116 13.214018232141145
Pt 9.120070262809307 10.814141011650776 13.16280228866635
Pt 13.196253203398836 12.96436821637334 13.261358493085872
Pt 10.408197337792775 8.468290123921424 12.968223406493712
Pt 14.40428671532658 10.649489960405734 12.768120203686133
Pt 13.029409378348772 8.408062398307688 13.017318893241828
Pt 12.1809882718936 14.256569251393891 11.144610448925741
Pt 10.377698553906523 12.48549007724365 10.692253855323164
Pt 14.18813850553517 12.531487891110494 10.859523560987212
Pt 9.841046899481771 9.866082655645407 10.772640496981962
Pt 14.103326181568054 9.05264198348494 10.628985107491198
Pt 11.787671864392582 7.866011150308117 10.727979539983048
Pt 10.370855702598254 12.883920102110755 8.206645966513932
Pt 12.85876152536279 13.48526296761809 8.683021672763102
Pt 8.698898966756405 10.853577408223426 8.594148180742664
Pt 10.073341510618459 8.382390040342019 8.66911762738874
Pt 12.685376830135036 8.498478126250543 8.339901290087486
Pt 11.760878083905741 10.723431704385368 13.543764743247225
Pt 12.249094711724167 10.840019971840377 11.020795168279435
Pt 13.463554224268087 10.973909052599028 8.804177498587585
Pt 11.195155968364658 10.522019638250056 7.646632228802639
Pt 9.667758849555975 14.87612972143001 11.375865759221133
Pt 8.064155465917676 13.182519372896381 9.787758763934326
Pt 7.969077723346793 13.109744656441192 12.470183389463424
Pt 7.361170447707276 10.963451849015476 11.073261455716723
Pt 7.805893063379486 8.671219365162427 12.359292102345737
Pt 7.58830904506161 8.687084482975182 9.662966245670573
Pt 9.314069421451604 7.041772854893536 10.891217294806287
