24
Energy = -113.30356202 eV
Pt 7.515089645711912 6.907471426510909 9.923344500325886
Pt 9.086423355038306 6.935258668487649 12.05571770706157
Pt 6.776199812071027 9.214057291825956 8.778053069462993
Pt 7.677304596557254 9.026429717081516 11.462587584965917
Pt 8.44634977100242 7.567751387375396 7.5694065513378455
Pt 10.07998188340497 7.021031765808973 9.621698925180898
Pt 6.3460042004094195 11.153096815276527 10.635165076335175
Pt 9.688000305631261 9.198256508246356 13.215308021282675
Pt 10.948356349865659 8.412476085965247 7.388351912081249
Pt 8.901286101273021 10.124337409812151 7.223684059269698
Pt 7.044430599218122 11.832822515367333 8.088639597552241
Pt 8.834048363218642 10.59768846339838 9.783662032998851
Pt 11.555320471842585 7.924618741247176 11.844868468326386
Pt 12.694318192488533 7.352426432151449 9.437909962917013
Pt 8.028300980730254 13.19792708427933 10.213155091760866
Pt 10.982868283597693 9.429229159885478 9.698751856755635
Pt 8.79386208177022 11.464877792545932 12.161877738230208
Pt 11.414029244710157 11.019640817015741 6.848428826534202
Pt 11.361369768820975 10.733304779907428 11.902111622298852
Pt 9.778435664114948 12.460370109951201 8.337203427399855
Pt 13.261768367001228 9.604118027194986 8.110462514136577
Pt 13.486453185119633 9.537070749235799 10.813576772372622
Pt 10.559014568426765 13.079145247731079 10.900400457804421
Pt 12.153441724893637 11.647550960320514 9.402910722308286
