24
Energy = -113.93260444 eV
Pt 13.548034588951742 9.591328422082922 13.860455863067
Pt 14.01638999333673 10.258008607348442 11.464877530756635
Pt 12.146575725807807 8.186989469333655 12.170400162150875
Pt 14.83375180435721 10.030618359487034 9.085313285596017
Pt 12.738639376646015 8.58547614479095 9.51145057674589
Pt 12.658779231020217 11.899911657142153 12.981863870099312
Pt 10.769268570445302 10.210049435450234 12.754019129718804
Pt 10.683858941854439 7.2465399866132225 10.178470648739824
Pt 9.266836938480642 8.308680092614187 12.100552940070447
Pt 10.603901992979443 8.60847175841488 7.853685808468372
Pt 12.710378606124456 11.022241105495011 8.108613966588733
Pt 11.6898541934634 10.797501399913928 10.391166724035731
Pt 8.960747878691707 11.831650448564151 13.385052975015892
Pt 8.753813152869169 9.008084350463038 9.748437661894652
Pt 10.11603320225028 11.124853452315055 8.172611035310172
Pt 11.31313769269294 13.268759903538637 11.185839664024709
Pt 11.34220964318129 13.334377719339134 8.676406176052284
Pt 7.437706754285434 9.832609767897731 12.950523666360553
Pt 10.803372596698448 13.547800672706428 13.67107711645552
Pt 8.21631124179434 9.71804243208899 7.397492773085128
Pt 8.990327763488526 12.234870007113365 10.897883070882132
Pt 7.044269266861459 10.641559245615268 10.604097620663875
Pt 8.712200080772774 13.130572983209976 8.542453848480815
Pt 6.669459088204574 11.606860903719804 8.333112210994535
