20
Energy = -91.26994555 eV
Pt 9.97276033268757 10.27430511471797 14.379685679430262
Pt 8.369076964513912 13.256449638035955 11.383961343655097
Pt 12.287354572243856 9.176517172114293 7.793470796417976
Pt 13.879359837351013 9.569507643489128 11.965723630037116
Pt 9.982900088457724 10.543198983719005 7.4626385369575665
Pt 13.951766657546335 10.276947025597275 9.455143411520742
Pt 7.669090633763663 9.53109456011415 8.706622526875675
Pt 8.901510693440914 11.660787042132185 9.478750553328995
Pt 12.271042863531378 8.235339682292928 10.22650751365247
Pt 12.626726280688958 7.395438189154027 12.596291298189566
Pt 10.731178239376343 13.26609389833571 10.256960919439853
Pt 12.621527891435571 11.686948242010306 11.199089137046183
Pt 10.065381465802874 13.147092640706816 7.636608858445721
Pt 11.178786654023746 9.460453433419211 12.28303554142445
Pt 7.784224613029291 10.15878782740546 13.156535433736734
Pt 12.032480058682793 11.733768407180145 8.58268374029368
Pt 8.945803150370839 9.589765139559692 11.024436438726251
Pt 10.46429946053031 11.990919963455235 12.50463090354173
Pt 8.285240340948253 12.577877687878932 13.832555476188233
Pt 10.041773286851576 8.49268822659871 9.009141931201851
