21
Energy = -96.57225591 eV
Pt 12.685466666424626 13.479105133132162 8.516511262430175
Pt 13.072943263958399 9.438966086047294 10.776776644617463
Pt 14.387452959980886 11.507519316631523 8.490855098937955
Pt 11.982233554159064 10.042627927616666 13.16053529925904
Pt 10.972284514783668 12.0606337394302 11.920543242812595
Pt 6.440602489512649 11.729735367326631 12.517108626781798
Pt 7.7214775469138734 11.799111584969577 14.710283525101987
Pt 7.730814571518061 9.73279274585055 11.48228591041491
Pt 10.374987657912964 12.826201285186713 9.53175260369738
Pt 7.624851830107342 8.648395079003398 9.239256736238112
Pt 10.076183374623676 7.956565120618574 9.079618089676508
Pt 9.429063823069706 10.48695709305222 8.884879435963699
Pt 12.420375843969202 8.501737653064348 8.472829958875456
Pt 8.133262053726911 12.081242234841932 10.496959582312233
Pt 13.219710686949748 12.119671244754908 10.7023527089718
Pt 11.915067345336773 10.957072022852598 8.323321791297163
Pt 9.416071430979235 10.379973555171691 13.423479970780265
Pt 14.34452963889967 10.765181134379594 12.544243570291988
Pt 10.38079620898414 9.479417859017603 11.149239890568849
Pt 8.803633209563273 13.082692742018358 12.762015336742643
Pt 14.869664376289045 9.09777220597067 8.996478127176287
