21
Energy = -97.89517996 eV
Pt 9.898522799620746 12.702138171295966 6.60027740437475
Pt 12.929252980464232 12.377661241691701 9.837568366764927
Pt 12.526387576726727 9.719835779510223 9.769644616720457
Pt 9.312153259752726 12.291459929236511 9.038417311472529
Pt 9.209327938243565 10.29759188932825 6.932089838593156
Pt 11.430672299919795 11.161012249114282 8.039248803370196
Pt 10.665779752192762 12.87028133903816 11.012314677888464
Pt 10.888631025545381 8.593583744367763 8.068780808080467
Pt 11.906435681802295 10.912818204305763 11.897665077884913
Pt 12.898709313205803 8.520318154695838 12.203931034030491
Pt 8.042574508991938 12.209776276262877 11.23394689800954
Pt 11.024529734279557 7.767251726731527 10.529335200268857
Pt 8.29241403817514 7.947125103088339 7.627097952540565
Pt 6.669840865207172 9.727851517980836 6.892552565168325
Pt 7.159888039265179 10.981299980610412 9.026188101815428
Pt 9.879346219238416 6.2305472061173655 8.665731182590408
Pt 10.408119600276178 9.070851649967182 12.668709763609014
Pt 8.065964427923245 8.8509014784111 9.960299393164297
Pt 8.066507495008144 9.912894104117317 12.217954943717828
Pt 8.775540788924678 6.655391845200423 10.949350899557238
Pt 8.352057326181693 7.602064079873387 13.2315508313241
