20
Energy = -92.56850549 eV
Pt 12.266254760643223 8.378402283406148 12.136466564957471
Pt 11.747258889204778 11.142790119969554 13.361393691580998
Pt 13.059334863064588 10.553833959179428 11.19238800534818
Pt 10.000461492666142 9.429004808284791 12.64856673395519
Pt 11.658722091175813 8.110612937185607 9.655108791674834
Pt 13.196716656076584 9.941891070497773 8.751518077300458
Pt 11.178161522810653 12.331610540875097 11.16503543953202
Pt 10.17965678641238 10.161893075032372 10.223826730739429
Pt 9.86199774114248 6.364243591089608 9.973461466372099
Pt 8.509457462538755 7.5687099741964285 11.797255102697834
Pt 7.448391792172532 9.757531442969015 12.596954070933382
Pt 11.032627346796346 10.984058661829971 7.953817623741325
Pt 10.635993694853848 13.362014462051942 8.859847738927968
Pt 8.671770974774097 12.234628719358088 10.22589221477947
Pt 11.130127131143919 8.562689406536013 7.172713230263633
Pt 8.451152690042818 8.43368403436221 9.434842713254753
Pt 6.958997542818604 10.359837311786121 10.177280499838663
Pt 8.716846152797727 9.447880839644593 7.148826773935619
Pt 8.64216537965223 12.083066087016812 7.706396295851142
Pt 6.521777940948694 10.659489586464755 7.686281146052026
