23
Energy = -108.40071911 eV
Pt 11.376122296799123 5.845384970245958 10.301341752693952
Pt 12.339221903069399 7.9590312793059566 9.142030840271818
Pt 13.1065958115996 10.109329361066644 8.008763183107668
Pt 11.764117286138749 7.922941830623156 11.80696633728386
Pt 12.61403224193835 10.131726165210885 10.628857125309334
Pt 11.952987567608366 10.101835104215795 13.161678543981676
Pt 9.711585841174958 7.546645117322449 9.19713996998159
Pt 13.136877327633318 12.395723145378275 9.336097437006794
Pt 9.29832605864949 6.671531534010999 11.689867949728558
Pt 10.547438498165828 9.614245688293217 7.789600587834783
Pt 12.37779762387062 12.451045308557665 11.864999829249841
Pt 9.916397404043906 10.310758459870987 10.276032206630317
Pt 10.609363792404583 12.79299326481855 9.897846229506483
Pt 7.985991966426684 9.099358326769382 8.05747867040454
Pt 9.551335966122846 9.107065177872915 12.640606622755932
Pt 7.802381200645755 8.658367270580332 10.726404946127428
Pt 11.426134137053339 12.133842154909452 7.401033976799893
Pt 9.934351248116728 11.75036184901261 12.53269637423747
Pt 8.946678413759892 11.70411685531923 8.047002852836831
Pt 7.504553107536926 10.807910686331674 12.34011490626952
Pt 7.0383507737460125 10.898250033396417 9.674323514225193
Pt 8.252045662365482 12.947300171435286 10.975608909967693
Pt 7.072016464087298 13.324574722207501 8.756172315332618
