20
Energy = -92.15397448 eV
Pt 6.677396170415147 10.920215167769864 9.059795674636236
Pt 12.054979833484332 8.399017809129903 9.752595522302899
Pt 10.94325532026648 13.437356573161479 9.80063357980311
Pt 9.127557401492092 9.923497428007925 9.255347453873812
Pt 10.712933584060119 12.664036596603246 7.32382847274553
Pt 9.71266079245994 7.551362347604111 10.014898221064064
Pt 11.455962514167918 9.964798755543471 13.618739577956958
Pt 8.950324629051005 10.93935842065187 13.633254895661398
Pt 14.620134036509004 11.384882939157476 12.368802111890556
Pt 9.488095223322576 8.894459109341225 12.175942227046487
Pt 9.122745474524876 12.256576114022662 11.433531282053838
Pt 8.721101866963616 12.39704943844664 8.857351114491504
Pt 7.473736703610286 10.35015091695202 11.392896316484189
Pt 11.545018623726852 10.56125999756538 8.449411709812932
Pt 11.459469763167128 12.958833414639475 12.363385381759603
Pt 13.309888540967176 9.32953212345862 11.81151906666931
Pt 14.06378974618811 10.034750230241412 9.314272750229986
Pt 12.976417681911334 11.934811362508434 14.153627564249415
Pt 13.046340909998722 12.108710386344349 10.506986169523755
Pt 11.121379966782847 10.53845375006576 11.11353236091958
