23
Energy = -107.4472421 eV
Pt 12.995283631499086 9.45152888471496 10.746142511797105
Pt 13.259862066259684 7.4254013524047 12.466205577913582
Pt 12.243038162985657 11.318526351792825 9.076299612913923
Pt 12.333832145288124 9.744077822165071 13.309138260822525
Pt 11.904902021595781 11.802602625690538 11.742734352893365
Pt 11.77275986137844 8.76321516048724 8.384879960286485
Pt 11.423412517171155 13.157979100293895 7.306707447461903
Pt 11.255049259096602 13.608403798232281 9.944167996785925
Pt 12.125871415882354 6.923793846987836 10.171904604364762
Pt 11.139267553651647 10.632717675644235 6.750330240969949
Pt 10.673193763264079 7.969133429192263 12.154304248585964
Pt 9.837338937974422 10.44102914276182 13.070629556750635
Pt 8.759469831350044 11.547076327214157 6.3329803333285835
Pt 9.278997469175009 12.56112426625513 11.289435053867102
Pt 10.362990847731094 10.010715137588825 10.43585469322885
Pt 9.268895300091046 12.518654080411835 8.621402942685895
Pt 7.4159809965263355 11.166081600023379 12.462604160291447
Pt 9.6301028245961 7.541499813081285 9.57245965102911
Pt 8.234481220344094 8.699423079564493 11.685767053716157
Pt 7.791162511307589 10.830587669865434 9.839182812211197
Pt 9.018716797024064 9.498688946389095 7.834237577734998
Pt 7.158471171667073 8.32988429043809 9.258919876915634
Pt 5.7874509284601166 9.607046403198595 11.10120900075179
