35
Energy = -172.67518358 eV
Pt 15.06446309013668 8.876847254124485 13.08233797785223
Pt 13.6665966984878 10.89292873859812 13.923500974386746
Pt 12.229875314475871 12.956272503705517 14.62849442396136
Pt 14.928588042073084 10.981944901890484 11.479947376164567
Pt 16.179922282005272 8.810843802292991 10.653565177134183
Pt 13.190522302465682 12.799308006656739 12.172685493846767
Pt 8.482614167727684 14.812319672388842 12.796504734083397
Pt 12.471560349248492 8.476409596043764 13.662180782348178
Pt 11.027457089425518 10.644267197159072 14.353823810357575
Pt 10.99352001697624 14.19703251715966 12.543886695851963
Pt 9.650753483398303 12.866128754741322 14.403519613623558
Pt 13.720412440281217 8.096544065529143 11.01636309019861
Pt 9.845171462423602 8.436320063287774 13.636578766548876
Pt 12.147922531193387 10.202090945114918 11.616806319058526
Pt 10.074430925401417 11.801617570834116 11.931592621238647
Pt 14.328377460293074 9.843556407044828 9.031566168665467
Pt 13.369968489713552 12.177712072472547 9.638680607235898
Pt 10.85511235578807 11.124034508807254 9.593446414027543
Pt 8.23698512898539 10.509151880281202 13.356981370220177
Pt 9.389655737096243 9.286494843920966 11.196230330895476
Pt 11.439942079598062 13.319287736824107 8.256202892708865
Pt 12.412225921165557 10.769425652932656 7.532083312274424
Pt 12.098636813301237 8.47594311785858 9.033377712362906
Pt 9.730127742129257 7.468312424884736 9.271189937576002
Pt 11.259862539827362 7.510415491853996 11.475155494978898
Pt 7.122677769273871 12.74550937973878 14.078525991999404
Pt 12.367662698136224 14.495662409623268 10.36566271283281
Pt 10.439310194268177 9.017852291412234 7.030257687257833
Pt 7.630670642731438 12.806988335628125 11.546058082574358
Pt 9.693981305372551 14.172842536785872 10.248450922567008
Pt 9.073302692790874 14.052641445861623 7.610551139721066
Pt 8.008061520742187 12.262412189428412 9.073261795587932
Pt 9.821379770310541 11.580637286052132 7.024453026882929
Pt 7.14076807267519 10.444423401483059 10.726272120370735
Pt 8.630392557566983 9.766755165744867 8.690366202553001
