30
Energy = -146.28201688 eV
Pt 10.938889017450952 8.761066772555822 7.284037966742714
Pt 11.279539189369977 11.274592271509464 7.539187658221108
Pt 9.413186929930923 9.978448489483192 8.95254701439775
Pt 11.554403822401468 13.771647045839806 7.96994436769149
Pt 13.598445555246736 12.061929423815599 8.554859368073679
Pt 12.628996042463386 9.446094142239126 9.073627680665744
Pt 9.686576188946422 12.531067726137419 9.454355495419525
Pt 15.128250146820278 13.18568123304183 10.446366282154482
Pt 10.320557704014806 14.952325512931457 10.102652352979561
Pt 12.883284416793279 14.384092756121698 10.09918137955436
Pt 8.606097689720585 10.920267986071712 11.22433537653576
Pt 14.309515526865626 10.662177514002313 10.726732505673596
Pt 10.865834090075285 9.551469428496434 11.068243147562766
Pt 11.962136350367718 11.918075618959326 10.556817748371026
Pt 13.15002414216392 8.414401398692291 11.423675132930086
Pt 9.128233086002917 13.456113577817705 11.94116507147775
Pt 9.268712105964546 9.28478015842495 13.256316495878227
Pt 11.463911796252157 14.555925722969434 12.386230191934981
Pt 11.05045090914836 11.728942381782439 12.901456685674848
Pt 14.053693624549279 14.905938572717472 12.370694323170909
Pt 14.242851877448139 12.40912078144485 12.78438822370276
Pt 11.908825327782486 9.192588953249519 13.714025184744953
Pt 14.410255329051715 9.868151036453542 13.2417089927556
Pt 10.786632350016061 7.280112076023054 12.383047373762517
Pt 10.075529137659853 13.57509547978376 14.458593647928552
Pt 10.27890751531999 10.777821467637875 15.221030896077847
Pt 12.816291348476923 14.023164882390038 14.526885935956976
Pt 12.991043880478752 11.319937680082976 14.802407343516716
Pt 8.264301949188221 11.7182293273532 13.721943625347906
Pt 11.565999394066292 12.72211702600861 16.444918975132776
