35
Energy = -171.84000411 eV
Pt 7.416980840237598 8.14560666653501 13.421336059092859
Pt 9.32636800358772 9.113733820853298 7.404957159982784
Pt 14.08802103773212 9.87636015202297 12.125369202656177
Pt 13.6912723071511 11.871909287784435 7.9685281610835
Pt 9.185814860344962 11.618269840015948 6.854147818386196
Pt 10.340112533080214 14.589429958846472 8.908244700656281
Pt 8.144922883304872 10.596899897803866 9.135378619708781
Pt 9.15950073625573 11.156527966520903 12.844370254465165
Pt 7.974873058955134 13.233932979535155 8.649199661089446
Pt 9.465221498370084 9.227204973922374 14.544566314072664
Pt 6.947546219753654 12.218344613229071 10.762883341594584
Pt 10.121996287960068 7.746509051074341 12.540041819218153
Pt 13.611556657243543 13.492775991818922 11.549277323843194
Pt 15.341365503869023 12.030789289595422 12.871820663628107
Pt 14.957619231712824 11.71762207718516 10.249763572161909
Pt 10.298490170182239 9.849762457762829 10.748515622161467
Pt 8.070804165446459 6.506127861853656 11.549698796370505
Pt 11.448592445371819 10.5080273856674 7.733616833918115
Pt 9.229613180620575 14.177416660665166 6.613685271623671
Pt 9.430912822746937 12.916956319165823 10.898289365814776
Pt 12.482881709081873 7.977083308277537 11.265897529527756
Pt 11.78431523554868 12.40664942603481 9.707795453627673
Pt 11.579321835624814 13.073740305371714 7.074000182214761
Pt 11.356360142090542 8.186252140309854 8.910260599512377
Pt 11.467226346981974 14.752504485782149 11.170793556198602
Pt 11.027209712023064 11.305356237803277 14.818108973927826
Pt 11.965144102748937 11.32254517250178 12.096384885535004
Pt 8.638483515852366 8.056055948200463 9.659754545648013
Pt 12.013696028918895 9.096610275114946 13.625351834667175
Pt 10.488317159179546 6.261858270460547 10.441506362220833
Pt 13.093328128483897 12.80626580095227 14.002167228232706
Pt 10.675821514037379 13.351703396068993 13.194741583730343
Pt 7.381989520925647 9.835697933154753 11.57035688231426
Pt 13.248412315445925 9.863546442689055 9.595274134139707
Pt 13.891080176395022 10.515610075962332 14.774145483275406
