38
Energy = -189.43696733 eV
Pt 15.343657816204226 14.538567854925889 9.878699944800937
Pt 14.024009855058535 12.725278135049248 8.494666276250198
Pt 14.809116094145953 12.228511900779537 11.056081731058494
Pt 13.902961490090725 10.295839407491389 9.519380451981874
Pt 12.739454437362818 10.990905803602685 7.155919698785899
Pt 14.231831487873738 14.553817502050864 12.26594390807429
Pt 12.730074372393846 14.443761450032586 10.132583937712674
Pt 14.088877012037711 10.036478537284587 12.205158481514292
Pt 11.14138031073108 9.294689998711434 5.990091150747985
Pt 12.372581955662099 8.546977296845034 8.204122659150512
Pt 11.415835633908008 13.039305803184954 8.379976918187461
Pt 12.076450150475193 11.915808130348752 11.017031137842515
Pt 13.270370178504306 12.385177263131196 13.326879395992284
Pt 13.143335853549768 8.020125311029238 10.64566320422329
Pt 13.217755209599655 7.836406636516217 13.362775613691385
Pt 9.263985743969359 8.84749612622223 7.750284309776742
Pt 9.914099164963316 11.390479308030914 6.979751570673877
Pt 11.634657534757679 14.49225554921068 12.655717251049733
Pt 10.194305758535048 14.035009245579966 10.500895921451805
Pt 11.295863990126605 9.49546473299586 11.728203317134847
Pt 8.830491119481533 13.310889870164655 8.391978648769392
Pt 10.79952583051751 10.345115774873408 9.305057090767454
Pt 11.087117502783972 6.92030832522997 12.273287450742956
Pt 10.626684318106864 12.31644663871948 13.750223361277651
Pt 10.484105136534733 7.547980311530597 9.722472805523337
Pt 9.537134576378985 11.29799570380667 11.421552621608992
Pt 12.07653862945505 10.147990857729496 14.079421297989105
Pt 8.042991169109957 10.925605567265759 9.073038139194319
Pt 9.505555713660174 10.210832253053798 14.703309743787807
Pt 9.037136349218372 14.339549991406662 12.82541127910031
Pt 7.937886669343435 8.437596419849225 9.881208162696161
Pt 9.07177610811566 8.422720009782072 12.996386381665442
Pt 7.687580730714705 12.996288729992694 10.828829626149815
Pt 7.929572336332726 12.112833235880734 13.451991316969346
Pt 7.062198172690585 10.420221911518986 11.464983864272483
Pt 8.719125107917032 6.413064177925444 11.365672833248198
Pt 7.008114040926984 9.715009565918555 13.991623585693501
Pt 6.615405506329633 7.876737729896904 12.09326797801208
