32
Energy = -153.5584598 eV
Pt 13.363084143500437 9.535297377966138 7.461097035207073
Pt 14.430582729147888 8.821221191771325 9.806863447657078
Pt 11.049378118275346 10.661887585404633 7.365921325179618
Pt 11.92279672049573 9.695414650353957 9.649898389058329
Pt 14.117999735506125 11.279860858600918 9.203343732297203
Pt 8.797249507258304 11.726846916399008 7.168508588707416
Pt 15.539617409332328 9.343833013719262 12.01263785939868
Pt 9.421343422195491 10.715161193620286 9.509767363056916
Pt 12.98925219755089 9.401968302818297 12.087466546769651
Pt 11.965906723781588 12.624020351688312 8.752617486113097
Pt 10.462133444707108 9.88717240302114 11.713218708137617
Pt 15.018511359543972 11.796197022345142 11.542928364205125
Pt 11.245997309788134 8.592781599352197 13.765773473529796
Pt 13.919809625007348 13.664848364566115 10.093263505748876
Pt 7.622936493885602 11.539162714027361 11.139062875535526
Pt 8.861619553832032 8.289735659055118 14.66963636351257
Pt 9.829612195172071 12.726883891631177 11.472801264834796
Pt 9.524821740802611 13.399932979177585 8.962880748930056
Pt 10.467390927104663 9.728921117963969 15.919855256520187
Pt 13.06930123780544 11.680058843393509 13.244328593248943
Pt 14.507048369824831 14.069406821548794 12.594280742802084
Pt 8.302121418970874 10.14174498578531 13.085299007595474
Pt 11.344003286131983 14.505537048882887 10.436633607183484
Pt 10.302514708026054 11.58807512269453 13.835150398081476
Pt 11.656008074163772 10.570256389995325 17.895817431750224
Pt 12.132844314921432 11.659858587312112 15.703468119001501
Pt 13.388416841486452 16.005363878006467 11.066674966907655
Pt 11.351945383524656 13.888519254866585 13.193867782816067
Pt 15.20692313138583 15.344903881208428 14.729058356026162
Pt 13.26521240781792 13.726683577903051 14.991078269918559
Pt 12.982094589880633 16.035979178852546 13.660122693675989
Pt 10.89713675141187 16.308079108307904 12.222291568831468
