37
Energy = -183.28817396 eV
Pt 10.60510238007905 13.66814908993554 14.50512043894787
Pt 9.987561396565743 12.019572300052552 9.7540998790732
Pt 9.504901407338208 14.555899371839303 10.18404308479798
Pt 11.573126512373669 12.338114323614741 11.740056887134486
Pt 10.32233029199247 14.525184210330092 7.630950217175914
Pt 7.949607994757397 13.688869928668005 8.189653883281743
Pt 8.107043063119386 8.866252327207704 10.107084802369323
Pt 12.107831723416705 14.543119430077128 9.602205110083451
Pt 11.905218678056103 7.5991380273295075 12.097923614328124
Pt 13.582845633195742 12.261480725699894 9.955537619774692
Pt 12.759584677965325 10.102954624407369 8.655972629255324
Pt 9.485862383910602 11.861061080837672 7.011512792295936
Pt 12.944144057467199 10.513211761520708 12.90083696188357
Pt 14.424923478252413 9.845045872059952 10.751017672338111
Pt 13.02855023385963 7.66114974312354 9.628690393748297
Pt 7.602119016889766 11.008191008417313 8.787902562423202
Pt 14.54652290971793 7.436608532330324 11.77172852303004
Pt 8.921879417541296 13.600463400334162 12.549071813979175
Pt 12.012450408528224 11.577723444938508 15.242217178409257
Pt 13.596722249961475 9.518760124959904 15.660733800211839
Pt 14.69403216743381 11.751623423524501 14.922357040429636
Pt 11.324978345959908 9.918884708665942 10.768890765949772
Pt 13.510714695322838 7.482749622152071 14.138196944850879
Pt 10.40243294182085 7.619853855290615 9.969922567687696
Pt 11.82525076115201 12.417816227868734 7.991927034272484
Pt 14.946474527468009 12.02538368985223 12.246921314676976
Pt 11.30807133130319 9.075356432848125 14.271938886771414
Pt 7.123182101786329 13.425046363087251 10.726908574922758
Pt 8.240760313281061 11.195606671626948 11.515663656903147
Pt 13.10402013040368 13.452219999938281 13.672927079855372
Pt 9.536219610359888 9.022797982968159 12.350763719494571
Pt 9.978428420683214 9.646337345016837 8.37350773317649
Pt 11.299527883992472 14.869945182453282 12.140537835708036
Pt 15.22842879652873 9.515434531003416 13.390502851189744
Pt 9.887608283053288 11.295047931688387 13.625214990235769
Pt 13.92306078339032 14.419080332773815 11.411164824287905
Pt 5.6827512276699785 12.660136608153936 8.740564551642445
