31
Energy = -150.49021676 eV
Pt 13.733087122509357 9.940992083083527 13.35369703155591
Pt 11.887294548641147 11.694779997847577 13.566944557891635
Pt 11.16702228320669 9.16657853070166 13.918816684623009
Pt 9.271665246650091 11.02402394681189 13.762700276181764
Pt 14.249157371866685 9.298877745012703 10.8228393171576
Pt 10.12109870796945 13.520627802146679 13.85341855251512
Pt 7.837960945799536 10.449856388821262 11.635872094085641
Pt 11.51886318076637 10.080365655751123 11.457030890755657
Pt 13.6028867409364 11.776771804474038 11.370239847037894
Pt 8.5571438268763 8.597785403565629 13.31579586310511
Pt 12.277396087730903 13.897837347506771 12.261280770686609
Pt 10.448140834137392 7.617230664048578 11.867019174091384
Pt 12.970037272834462 7.618133319625614 12.38994235335314
Pt 9.976593110187267 13.226980125938166 11.175662837951938
Pt 7.853859082632298 12.935947978413829 12.643166699460568
Pt 10.033370439919294 6.312329874678108 9.668917149714725
Pt 12.214759572956972 7.923543485797473 9.836306853498991
Pt 8.149769210485914 8.034216651441241 10.731261665079485
Pt 12.641869735525123 10.546746710547588 9.087324056417653
Pt 7.687117098237908 12.51187517963547 10.088598014861603
Pt 12.179205404311265 13.26866552759837 9.76516199578344
Pt 9.855690846735037 9.866646124063285 9.495201368270118
Pt 8.494618062251654 7.78375895056437 8.156240784864085
Pt 9.899736896212096 12.581794144993722 8.671545673175759
Pt 7.310666597912763 10.024896161899392 9.059444391032581
Pt 11.047451637288503 7.67108458702413 7.5963615177988935
Pt 11.03965311820326 10.127999604529222 7.0754868273559435
Pt 12.142711129734204 12.47060825736807 7.310488457261967
Pt 7.612518223201934 12.168202438553527 7.515387644249033
Pt 8.498998309082763 9.817888330063482 6.617879724918137
Pt 9.757996101127592 12.110875301126425 5.977240961504824
