35
Energy = -171.68396689 eV
Pt 12.528055845966556 7.758084716533669 6.780199501605613
Pt 12.466398671414206 7.078017091307957 9.320730671637893
Pt 10.412012330245568 8.355187738508283 8.122128315396141
Pt 11.578283118644338 10.241944244948812 6.649722324420378
Pt 13.125622198672302 9.517617494710729 8.633161177200488
Pt 12.302577977751666 6.6089482357871 11.854354408683612
Pt 10.146127422529876 7.283998223794582 10.518572637877803
Pt 13.794252266850135 8.67578405806985 10.975001445544049
Pt 8.25998922527647 8.784109032442752 9.357244802961906
Pt 9.369711705008315 10.735297808960517 8.104675487223766
Pt 13.0031889659851 12.009448832346326 8.070750539635805
Pt 10.677253272564158 12.662260343372358 6.941998444080638
Pt 14.083200352507639 11.189905366357609 10.292134910673607
Pt 10.168469610602589 7.587777745905917 13.172962244943173
Pt 8.011989250286062 7.678378022506173 11.848312343700275
Pt 12.290332564625391 8.973812096729011 13.017677134496607
Pt 6.014554033721082 7.920350545731439 10.262479566931253
Pt 13.963888448901992 13.734622210905915 9.674683613706046
Pt 14.44840924518655 10.42084054475436 12.777129407961802
Pt 10.667678763422101 9.482944339153791 14.978133545730266
Pt 6.592667639460339 9.863501557133146 11.8186039873621
Pt 11.433387735968537 13.940562317636392 9.031925863032036
Pt 7.724387661648226 11.281244097367047 9.989707944116502
Pt 8.922881908448584 13.257525687688558 8.75516578211384
Pt 14.886729621563152 15.01714020541661 11.702348329745098
Pt 8.552473202225245 9.696104899161758 13.51922362124145
Pt 13.670857977909565 12.872179159194369 12.343588689815975
Pt 12.31393296151695 11.357184622105999 13.975742107200773
Pt 12.291444562126701 15.00270202889812 11.224641777454833
Pt 7.814964914710945 11.958986219430617 12.54485646601211
Pt 9.793993142720021 14.478186573803084 10.972950114058003
Pt 7.32070484479445 13.770377974478816 10.73877945100892
Pt 11.170882641385301 13.393223468274496 12.923112258060344
Pt 9.73478195225062 11.857962202222572 14.41286970189092
Pt 8.752497721977244 14.164525465096172 13.33381156931203
