30
Energy = -144.31261378 eV
Pt 13.455016401816806 10.777969068859132 8.440524252561529
Pt 15.299423478741673 11.829796793162686 12.371296101606662
Pt 13.856656175379214 10.149561205070025 10.943617489485852
Pt 11.235646229483217 11.26917934816424 9.564559047519204
Pt 13.414653515378154 10.308147449115689 13.507500505759944
Pt 10.521265189693885 9.052412197684133 10.600312127144202
Pt 10.571731632608799 6.688418005614148 11.615592196919172
Pt 8.789996219248696 10.388686946303862 9.286884503830784
Pt 13.292899539279961 15.19556080721509 10.007296764940614
Pt 14.710446202093891 14.389666051240063 12.01364645142036
Pt 12.495230109154358 8.274786716974843 12.038772421460607
Pt 14.356617456527681 12.63298036924425 10.093520192823515
Pt 16.329953417693364 13.624254405916542 13.912061039817301
Pt 12.47404205073089 13.332732708431088 8.425599688301467
Pt 14.113393898523137 16.89028703487047 11.732429909517695
Pt 9.76490801947616 14.171728833769361 12.752355939531943
Pt 12.032434606983378 13.713476062179772 14.132772718666436
Pt 10.310715143829299 11.776268359248666 13.550150393156049
Pt 9.134665504339479 12.177617715698585 11.148678024400667
Pt 12.045937398166924 11.32988128009128 15.486448555175123
Pt 8.978630271081473 9.73394568317701 12.585581538359532
Pt 9.354514809420932 7.449605509717237 13.668529672283634
Pt 7.08087685848946 10.563249796711562 11.149753710775
Pt 11.850815455032144 15.662736213725173 12.383224747715241
Pt 14.263513735130758 15.088495455536366 14.548766667334977
Pt 11.058846178025279 9.273113563153437 14.12605107291435
Pt 12.384781831541206 12.193253607091718 11.971728602067564
Pt 14.245238530102284 12.464190719328343 14.866188166278604
Pt 11.036162601674286 13.895913906894586 10.544270390927078
Pt 13.048439661320822 17.209536306778023 14.039339228273494
