34
Energy = -166.80945926 eV
Pt 14.130666513075425 11.651684332818583 10.81986817742947
Pt 13.491995556812526 10.854260265695475 13.173881320903027
Pt 13.762141845131042 14.160575381839406 10.130878068514422
Pt 13.58913671126238 12.343620071456943 8.272035577062905
Pt 12.77058161555252 14.72227123188051 7.679441562158244
Pt 14.146807911350555 9.906791140070967 8.821297351879828
Pt 12.010023145384917 12.813145790174923 11.869536155293972
Pt 11.323735212597324 10.95979719788679 9.986481562962211
Pt 11.582074694822863 12.171606244798651 14.493644675171753
Pt 13.528715043629894 8.320455339322987 6.860276073789127
Pt 12.079797476913805 10.495612227915363 7.249913918185031
Pt 10.767061973350842 14.39058062637207 13.625395072013955
Pt 10.966261157425285 12.792460879911848 7.2842683350757955
Pt 11.206997406119978 14.097506004552956 9.622147576499923
Pt 12.513591831448514 10.026648045138776 15.475887659181
Pt 13.025974140205701 9.239358035058267 11.09380625673086
Pt 12.18674211758364 7.860838138346778 9.033941095712137
Pt 9.49729412417703 13.779166202793599 11.451094851638473
Pt 10.89036146289782 8.25447906130842 6.716010779829561
Pt 9.223495823913655 12.427455316358813 9.221703073638649
Pt 11.580125696061373 9.020319508262533 13.250303398242767
Pt 9.385747877457977 10.67884136617965 7.2065161006293375
Pt 9.040073878685341 12.328880007883692 13.616638902082732
Pt 9.893666539289509 10.1022462763571 14.979951910011307
Pt 10.78783183231172 7.681515574678799 11.189698768037953
Pt 9.750128625590357 10.414188060775928 11.937231948447895
Pt 9.80373298129808 8.897101415868876 9.043202147230518
Pt 7.712857274212236 11.903023252879507 11.299476706132435
Pt 7.6089858201284 10.292452224627677 9.154102409805505
Pt 9.213106828136548 7.9474296443961165 13.397058169882541
Pt 7.658529564173576 10.15662536437138 13.580398296548411
Pt 8.230105161731302 8.26675889810369 10.9679351669515
Pt 6.191294936465519 9.797936474299279 11.321375122005426
Pt 6.591922897192553 7.808167777591138 12.98097217479347
