33
Energy = -162.04190497 eV
Pt 8.368448541951562 10.598418697152528 7.904802470881885
Pt 7.253705775224111 9.764921440357368 10.078961749160772
Pt 9.605066636628484 11.353099106400052 5.764384774569864
Pt 7.855273888890829 7.363134709740172 11.063581546156145
Pt 9.273305290494982 8.332060022865747 8.999642603059
Pt 6.5997848704682625 9.144110427647304 12.56402116745531
Pt 10.80910523045575 9.399440870359506 7.113167052946182
Pt 10.379207104240463 7.994082297420085 11.469665628348913
Pt 11.94176040797826 8.389489748483347 9.360566931927877
Pt 9.982633577363325 12.791659266538932 8.05576128686737
Pt 8.175585533248116 12.358058895956315 9.932719727891383
Pt 6.620922766262446 11.68081148295978 11.98143525464099
Pt 9.452821545871979 10.412243320127697 11.214598405338304
Pt 11.03503535559912 10.7704037038829 9.246881771532284
Pt 8.779122777710795 7.96265641326241 13.532498844769508
Pt 12.006811562259294 11.783742726447265 6.557961499439471
Pt 13.471124945803334 10.45473045789629 8.203628411694542
Pt 14.492492355206771 8.865242861958505 9.99491407619709
Pt 8.55762911891605 10.620884244983962 13.615004053987494
Pt 12.764479993301528 8.785609776020134 11.983414602789148
Pt 10.944888369264124 9.43208672978959 13.830992707779915
Pt 12.675978195395286 12.994426454674663 8.870730567751439
Pt 10.542234192297103 13.534874632295873 10.464536244401154
Pt 8.716441074727898 13.115893580995536 12.44373495494507
Pt 14.29946677344643 11.535660655262093 10.43944017927041
Pt 11.916731729272183 11.261256615624243 11.596219842072953
Pt 15.1819526660712 9.853813501395067 12.29359438907299
Pt 10.74651065881867 12.05541172267642 13.883812582873176
Pt 13.170160890299133 10.809851551156092 13.845027477045107
Pt 13.02476950823628 13.673807767225046 11.395522420970805
Pt 10.848751898588498 14.48240615449182 12.894513566403319
Pt 15.015935089917146 12.401933699843825 12.86173782431397
Pt 12.983821265916534 13.50365377150352 14.020389664805124
