38
Energy = -188.17937398 eV
Pt 12.421181650259495 7.5685361570174985 15.389544436739088
Pt 11.694015584676261 10.087539367620208 15.347087464225762
Pt 11.029850643011734 12.573233438301774 14.843770398081137
Pt 9.590675371406265 10.556917736515253 13.748023540735693
Pt 10.441123150400886 15.090792026871437 13.996652614007388
Pt 10.59633344006324 8.095037985727343 13.605237235908374
Pt 8.998766776756934 13.102939194107499 13.151007725753425
Pt 13.085924674825247 14.357243452461077 14.035627837334559
Pt 7.684648223538489 11.062523043861171 12.010612500800253
Pt 13.67577704356623 11.915287298735876 14.595523880268843
Pt 14.293325899676397 9.38865895598358 15.11660345537033
Pt 8.844493650546594 8.697888347551563 11.87387341342579
Pt 13.224321239778828 8.144650673884781 12.949295145288326
Pt 12.186346421862114 10.614330040527605 12.815252269258902
Pt 11.604487726525209 13.153410902837226 12.247489262038776
Pt 12.323433377462083 16.70171310838351 13.15702171065603
Pt 5.72170038427352 11.580806108683547 10.255885190387616
Pt 7.3192486877188925 13.453527783886035 11.12858747599921
Pt 10.823378268320308 15.4725349284121 11.35878909745601
Pt 14.516434090640013 12.946456620687968 12.230011604029634
Pt 14.852693519699383 10.319182145514386 12.704753120887023
Pt 13.52585869439594 15.257075198766561 11.336132270055133
Pt 10.12918233275753 11.397831351723758 11.055842696476596
Pt 9.511148142800414 13.800168787616029 9.900437096389187
Pt 11.379268756032607 8.600152317440365 11.049532334045866
Pt 8.047273809021872 11.777954803571449 8.958758494407489
Pt 12.721838071850755 11.462079426232766 10.45665732616717
Pt 12.053647620439406 13.969563231331279 9.448999963176538
Pt 7.143264395950226 9.396529552696679 9.98544876822635
Pt 13.990680173952624 8.918703375576955 10.588413752904321
Pt 14.724067187459774 13.76820373871661 9.672373776228312
Pt 15.36911973539674 11.256751951870292 10.349984516275933
Pt 9.611634368411492 9.561919690795628 9.267740457719109
Pt 10.656088273902336 11.942412989576903 8.386749706713976
Pt 12.119966195157112 9.644699104071917 8.666939695259417
Pt 13.25327023584123 12.112823308302591 7.93360659672242
Pt 14.6943955830173 9.822196710828917 8.184998363358249
Pt 15.864974623777556 12.151563168482408 7.920572832393986
