37
Energy = -183.92001833 eV
Pt 13.89651071531279 13.680794681136526 6.637368200236333
Pt 14.835805432834523 12.904838851196958 8.921161394892948
Pt 14.667036036789376 10.379276642104896 9.69872071659561
Pt 13.365119249998713 11.338463173819413 7.417493451035456
Pt 13.462938608791491 8.796753917175048 7.98595722290144
Pt 14.578635060910273 9.82816176057922 12.320448887551109
Pt 14.814352538175475 12.38112255307898 11.451083999776301
Pt 13.387618307511303 8.188096363616603 10.525354210915085
Pt 14.894852199118336 11.941567774889878 14.01036822497849
Pt 13.037552577792901 7.810108063655707 13.091272480868957
Pt 12.158659268865678 14.821132566250608 8.099718920003887
Pt 11.467959384705564 9.840682856056894 6.565842732509571
Pt 13.050586669366625 14.115808840044458 10.402148728539713
Pt 11.605599557308503 12.41749443041164 8.991298109762797
Pt 13.2465687118248 9.98171009247443 14.584879441909303
Pt 11.251056145410578 9.246786860644589 9.235932870038237
Pt 12.521024508741718 10.945759118692317 11.135238017543264
Pt 12.995917360307557 13.51427625460048 13.002077384307071
Pt 12.731536301032953 12.390118089676399 15.486842703748563
Pt 11.57875777237297 10.202024940179365 16.615385084392123
Pt 10.969810404671431 8.757683955467938 11.796017254211469
Pt 11.008007723011998 8.612054982629266 14.469908720626542
Pt 11.304057676674825 11.431827368864294 13.334285880602605
Pt 11.183988644660152 14.452082196094397 14.60450250988757
Pt 10.90561329376444 14.710735955260104 11.932020642935646
Pt 10.022615491666691 14.566997916413557 9.421879269023291
Pt 9.693101509423487 10.980684553386167 8.037758110191216
Pt 10.1716244453467 12.336471457972163 11.227838807004499
Pt 9.124406472354556 10.110945375596073 10.5302310303175
Pt 9.057378540073756 9.94300367402891 13.139901889969016
Pt 9.134232591037295 9.852573415551163 15.765508874399565
Pt 10.087206015113143 12.248586683687487 15.543276208902052
Pt 9.032088952309115 13.476461571332516 13.50416614268415
Pt 8.240191970371358 12.560682441832023 9.454677567219662
Pt 8.166206432506701 14.513282699515452 11.266817389596534
Pt 7.53885006376781 11.901120973157083 11.960141988244914
Pt 7.547895839657858 11.555189422510592 14.567837405260471
