39
Energy = -195.0199374 eV
Pt 13.872169715831761 9.188706817711909 13.556513926132038
Pt 11.251599832812168 9.388171220818899 14.207441597611197
Pt 12.841604090926483 11.428452165362886 14.620351013250033
Pt 9.741903877308918 7.696431090417706 12.879825830202362
Pt 14.32854870504529 9.024136722088095 10.988470300774132
Pt 12.236622354790365 7.706329419970129 12.068447947982785
Pt 13.971840424168601 11.46421427810119 12.196622640595512
Pt 10.280038112286077 11.919015540295224 14.589402756724713
Pt 8.652087744316855 9.862138892863323 13.888186180325286
Pt 11.630165437580585 10.33165595166927 11.821809386168093
Pt 14.657694621642879 8.889784052704366 8.37574753091984
Pt 10.419013218425983 6.657278900294602 10.430113424673948
Pt 7.247304078230928 8.124624763837828 12.269512402907031
Pt 12.68510405932955 7.510350088651805 9.423807318518909
Pt 11.934706022642427 13.177382178662459 12.874252075852178
Pt 9.611541385775968 9.13937282017075 10.743775164626214
Pt 14.245879680078295 11.285304373792957 9.551664464101941
Pt 11.925494625200074 9.991184002983543 9.348756642253703
Pt 7.692397679092393 12.328180368138945 14.2814292123536
Pt 9.320515038248512 11.42784913293106 11.854160395944028
Pt 11.134419314642658 12.322443745419662 10.188735553975073
Pt 12.404690360572262 9.194060155943783 6.996164113506486
Pt 13.37098839379581 13.515282161456396 10.674964894926596
Pt 14.293386725279628 11.07955823014221 6.9337353538940825
Pt 11.815412196530595 11.97417289662514 7.245017782825861
Pt 6.1931552613349865 10.437443985108333 13.17219234660791
Pt 8.323392679505382 9.972867595467434 8.501934880181453
Pt 6.894295076727129 10.078086507239076 10.65114555472664
Pt 11.026695432426934 14.92763094353237 11.179036669511996
Pt 9.34136255382456 13.851813413488342 12.9101409134703
Pt 7.866903802046854 7.607008698291277 9.655170143378472
Pt 13.69190102081629 13.46732683260322 8.061300833522877
Pt 10.227611998770781 8.121139261343156 8.180264502907425
Pt 10.025746686484885 10.20547752830079 6.517008632735333
Pt 8.818424913727256 13.883817761466915 10.158728891245385
Pt 11.1228237521802 14.28905647646957 8.573501266033277
Pt 7.047418026556721 12.569979352919075 11.733785396130285
Pt 9.400994933174477 12.276520237797731 8.107783039553057
Pt 7.003394366860146 12.234999633910379 9.138347217942215
