31
Energy = -150.34612248 eV
Pt 13.513079990524224 14.622505073980301 8.385849400154235
Pt 11.479857202884649 13.553330879416512 7.010382793492143
Pt 11.04849777837174 15.371904247375173 8.987824499676096
Pt 14.919245452656062 13.15268377583718 10.079350278586354
Pt 12.906253687370036 12.076925860330306 8.65736056393458
Pt 12.418443389699027 13.880864189688292 10.685907764449539
Pt 9.521848644205745 13.332915506525918 8.704286427627048
Pt 10.588681901834866 11.188338449584545 7.733542729019575
Pt 9.930847670971193 14.470376498126395 11.158028758948376
Pt 13.795741659181896 12.40878713767879 12.319531114418691
Pt 14.291070184163507 10.600493952502974 10.297704076559667
Pt 12.11408556185346 9.653675021314372 9.097587723133314
Pt 11.482024078345491 13.39259912938849 13.049457606854995
Pt 8.077849079883501 11.197782635987853 8.612496656601449
Pt 8.16652594996043 12.6437805968191 10.779424231482395
Pt 9.636813580156945 9.12297903897064 8.920724098596086
Pt 6.593981936402149 10.586305788017071 10.705676934876092
Pt 13.58102120647776 9.818455015116838 12.677370116569566
Pt 8.828493037966119 13.324554139342874 13.182043098662964
Pt 7.075644438611137 8.74329832173848 8.889149043936069
Pt 8.210916727581775 10.785583831490438 12.69861204766993
Pt 13.490797805504604 8.194823976831465 10.723844834708483
Pt 12.726285019929026 11.556668463869432 14.463638904954639
Pt 8.361234153852841 8.648309198028496 11.184713365950968
Pt 10.825162303213402 7.937015354046433 10.857925664609997
Pt 10.124662629523652 11.42263754533749 14.230802022153895
Pt 13.885280639917788 9.330885272088807 15.24970057236618
Pt 10.063621936705017 8.990247586147765 13.12098124006422
Pt 12.274319278101549 7.834755339024046 13.774433903812952
Pt 11.288345054102635 9.529377424151678 15.453940378265061
Pt 12.357216623630677 6.2049893548244395 11.885557751446882
