36
Energy = -177.6943138 eV
Pt 12.896071161387692 10.19025273532882 14.462825417658905
Pt 14.901433849352255 11.838470676333587 13.855504333009533
Pt 13.151094294271934 7.734598981331423 13.393255763261363
Pt 8.82459936001153 8.06099441120082 11.74382268862421
Pt 10.717684141842454 8.819134461138633 13.627361756271481
Pt 11.33189629237276 7.186335605198841 11.513393153615915
Pt 12.677113857094712 12.829953907178286 14.932233871083104
Pt 10.543719000736068 11.304097725424407 14.522904019190454
Pt 9.738916117548774 7.138591354547672 9.406617949537827
Pt 7.700196052467139 8.842894703514046 9.314848654847967
Pt 11.961813503973023 12.147594643812965 12.498706554878366
Pt 8.683337844125482 10.411654449073374 13.023024594845303
Pt 14.535231297314489 9.765074528458184 12.320818480196657
Pt 13.948875243759801 7.739670179748985 10.837058724276128
Pt 13.956236339722976 14.317238634754453 13.090994526819776
Pt 9.582866339412051 10.17464678465069 10.505718917838061
Pt 11.950994546149621 9.784381517128246 11.553796711850328
Pt 11.31015542218818 14.5332084567967 13.224772965048036
Pt 14.368229835380143 12.322352714478683 11.364129531418767
Pt 6.596883757712518 9.714259248656477 11.63893526716968
Pt 7.610163478416857 12.276762831267956 11.424449196328398
Pt 9.060301651756143 13.105491997732452 13.393541161099456
Pt 14.019433168857075 10.229802661553284 9.70623056678771
Pt 12.037846976279988 8.409586901509293 9.162293103700671
Pt 9.985379606336892 9.414838039808954 7.9703428489720975
Pt 13.635613797325405 12.797882912514083 8.889157822583064
Pt 11.518520325101818 11.740620381002476 9.898968687626962
Pt 12.55161062426243 14.372288870990744 10.80554618636737
Pt 8.783316139290546 12.319851958024758 9.093983730012209
Pt 7.785256087415296 10.679450026297387 7.2632200097452895
Pt 12.352042743869315 10.606148757944883 7.706476204972601
Pt 6.370688058192001 11.089676356162933 9.452747057838486
Pt 9.91680114620356 13.691756341488507 11.020059178436242
Pt 11.208276028317645 13.956758419994658 8.564394923676495
Pt 10.205772986808928 11.870340546259559 6.953632487043262
Pt 9.024164294529843 14.126729635501114 7.257182495063919
