32
Energy = -156.36148509 eV
Pt 7.712545227569083 8.718456802801635 13.986018806181283
Pt 8.626691678864916 7.0427656366357425 12.194290496907477
Pt 6.548596438986747 10.904271425912398 13.234243846577899
Pt 7.5348215714074085 9.30593250998685 11.380957192011216
Pt 11.119319315449934 6.985875197148777 11.404890956219633
Pt 9.209725804502346 8.112380029547271 9.76371720928769
Pt 10.322003553562022 8.401436108471142 13.776078721537699
Pt 11.590857154836414 7.372442686130617 8.857105548828173
Pt 6.450285107341967 11.572626133307583 10.616525674949797
Pt 9.153227273937226 10.906274735766448 13.622088525032689
Pt 8.238177435793382 10.504085035355812 9.077751298228161
Pt 10.516656847298718 9.571894837544189 11.448502631912055
Pt 12.748778452841897 8.391085726676705 6.820739610472078
Pt 7.839414008470333 12.965147429650798 12.313914585047513
Pt 12.085389822542057 10.887814125470685 6.491232138770752
Pt 9.58226210696049 11.878571151039107 10.73318002207632
Pt 10.371070415973143 9.531553851106082 7.892208901307175
Pt 9.65733024161719 12.0514312082617 7.3498520396547296
Pt 11.778523148857852 10.754974332855635 13.346076387276536
Pt 10.55491958861866 13.027494443008413 12.820057595331232
Pt 9.170829130556463 14.932889928503263 11.433638424823874
Pt 11.693722769837859 10.991732394074596 9.593637856394748
Pt 12.827938023479213 8.282888987238648 13.068347789947989
Pt 12.025348667894189 12.963250482623804 7.9784943001080135
Pt 13.087875805144588 8.66385767366239 10.48364573901901
Pt 10.01236119199633 13.915129768913513 9.21752574794092
Pt 13.820352160805246 10.069344038136691 8.406876431332462
Pt 12.820487530562414 12.38795500189862 11.542345859799958
Pt 11.717759751521784 14.703665354785006 10.986116443732081
Pt 14.221097763663638 10.257217159848258 12.122566332336415
Pt 13.724997446364466 13.943186004138262 9.59209362904585
Pt 14.886056237215444 11.62053984636998 10.026449836004712
