35
Energy = -166.61597143 eV
Pt 6.984525130970071 14.114760450579132 11.736473472011156
Pt 8.771161886080144 11.976039973950511 11.644710012214253
Pt 12.198295519323027 13.005822423143519 8.664662557634932
Pt 12.286727835077286 11.1287340072558 15.440965322030493
Pt 7.646304454600178 11.775857772860746 7.331763892931192
Pt 10.526163842740575 10.046998492473756 11.215308978869661
Pt 10.249517384480876 14.60163895110978 14.004601089975585
Pt 12.521881316803459 6.380440969063379 10.787172287958548
Pt 8.05260380266227 13.064587577762255 13.89455707818323
Pt 11.816595834720935 14.89954649446113 11.975704890185138
Pt 14.48892398130191 11.781995865095215 14.135741460260359
Pt 10.09011737068583 12.430398975635264 7.459080150562652
Pt 13.690306051872895 11.058711816410087 9.170903223850814
Pt 9.802466089428151 13.858428347995206 9.59088344466496
Pt 14.999348460811744 10.398038707758392 12.000448281801368
Pt 7.396829858384874 12.954622765404293 9.57388261520839
Pt 10.93398304967479 5.47504906166209 12.427847013705934
Pt 12.638410703579236 10.127974432803066 12.97226606942934
Pt 10.550970302531935 9.51779680857866 14.424712850198748
Pt 16.272387486604348 12.754563571492966 12.610436887510886
Pt 10.418991387074387 11.958687693708738 13.728773057348578
Pt 11.464124702138504 12.422840182356088 11.219607853453406
Pt 14.398394847699954 14.685289981309582 12.550980269412657
Pt 11.279507075712628 7.908218951941287 12.498563136816143
Pt 12.865135909392926 9.071570929384773 10.568429957376027
Pt 15.617604006536464 9.518021561835377 9.63396448273857
Pt 7.795380663264875 15.638164117119432 13.818488825531624
Pt 9.117359912020092 10.833515272388647 9.26736293249735
Pt 13.068046562302875 5.3920363276069985 8.587553337450439
Pt 13.804762875655086 12.921972680770704 16.352245265464216
Pt 14.275521361597422 7.447172706146826 9.186082851255597
Pt 12.629927191483935 13.716533076050487 14.238883795668956
Pt 14.118692736247088 12.609944189966575 11.111979930902903
Pt 9.274598147058754 15.210420257414711 11.638691338939227
Pt 13.452464439299025 14.811636786323135 10.03430356577537
