38
Energy = -189.43308356 eV
Pt 8.634138986656817 13.657453598158009 11.481500249985535
Pt 11.710793640466653 11.325166097555405 6.6094581028675785
Pt 8.531773499066082 12.082159932009361 13.531929535214218
Pt 6.956495559828423 9.896309317392268 13.540878473384668
Pt 10.78202935115794 7.643511306871773 12.465295069271384
Pt 9.582686884454287 12.931497142901806 7.126115973764942
Pt 6.594372027955587 6.334094374555488 10.845711605632385
Pt 10.873383197738505 12.238825854924983 11.843411660976525
Pt 6.057838222043202 7.852889822845162 8.686126016770233
Pt 7.201494288778709 11.89881519130699 6.79559637096396
Pt 8.039057738060146 7.713930168246413 12.620772568636868
Pt 11.65634819333759 11.377947017133048 9.284994104978924
Pt 6.42743167934018 10.519141179167505 8.96955718445446
Pt 10.30899326490344 8.146667382779526 8.282358276413932
Pt 7.079326187460916 11.469507741640742 11.371364955264482
Pt 7.01038721560479 9.297303285449507 6.616555000398693
Pt 10.344391784809389 13.63908600096538 9.614848091492034
Pt 7.80465051095577 12.761339223499974 9.179881401790935
Pt 9.407702586002962 10.341954771740589 11.010630148680287
Pt 9.517813236563782 5.521938904883726 6.556572301315635
Pt 6.161078918070706 8.989753225533684 11.116892141473478
Pt 9.548538033611642 9.706826294346385 13.493084071333582
Pt 9.178165488341458 7.956148691316562 5.872907653959393
Pt 12.912236879628741 6.950597364312807 9.244121572233881
Pt 11.837841547128749 5.682522863265066 11.191236023224949
Pt 8.027320759620803 5.840021169923221 8.68550501376585
Pt 12.036210207026567 13.601223666083756 7.705519066192181
Pt 11.434442660402889 9.10066834128188 5.433401908392738
Pt 11.595976480802062 8.99965837030488 10.43069663058898
Pt 9.2069213267697 6.019451061044942 11.046896171649824
Pt 9.223122298984045 10.572576955767662 5.769509497349994
Pt 9.195734823543656 10.512836219576052 8.460435606830211
Pt 12.663301859622774 9.284956977059032 7.973022897320614
Pt 8.375323544907554 8.392088265859712 9.825731018018335
Pt 11.947284532870253 6.87856827504101 6.728039804073211
Pt 6.982355978849017 6.711327692646615 6.468169213459334
Pt 11.996693089553968 10.100602499174268 12.804464270161198
Pt 10.681754731721515 5.5760449700757 8.842221564356546
