34
Energy = -166.72369268 eV
Pt 8.049893404278357 13.057036919129853 12.226372479663857
Pt 10.0816379722657 11.844676762671952 13.504770929834594
Pt 7.906017689585294 10.539370327780857 12.534535923590244
Pt 10.285862120441498 13.260771144747974 11.028062398976715
Pt 6.328472016008281 11.742489755670013 10.693624688155662
Pt 11.378584093463413 14.146465592229038 13.194978797686097
Pt 7.4812743170535665 13.02492356896996 8.595237708405746
Pt 8.840990744121221 11.26433582139809 10.007331838968158
Pt 10.01355362651933 9.181084920736891 13.347015481815243
Pt 12.253428294478956 10.352586105887637 14.147331444045143
Pt 7.837677240639175 7.921338687596971 12.652338880352492
Pt 7.0752307126299145 9.138933802877471 10.440511968572357
Pt 10.125990344515166 13.352686247342831 8.425336392933374
Pt 12.684043477875015 14.090316368329152 10.786842803569272
Pt 11.644623213527597 10.851836798080875 11.587854999791809
Pt 13.261473797757997 12.450555500755973 12.79690564043919
Pt 6.724503994509477 10.49248984693178 8.250496563933709
Pt 7.457688188782093 7.961676631110439 8.116056456661658
Pt 8.597802924484744 6.951444512924724 10.293255246007352
Pt 10.119203558985893 9.031123910017202 10.591538919631784
Pt 12.736314737180471 13.0708595244318 8.409610431905422
Pt 11.428550519584713 11.776352869970992 6.5250916077082035
Pt 11.257388825728137 10.893918590995959 9.012591195587863
Pt 10.224785743932744 6.712384696675795 12.39820890505872
Pt 8.968869508406678 11.222883610517824 7.222419715780866
Pt 12.480379274922223 8.233928902411696 12.50698212475822
Pt 14.361776101202722 10.102577603522029 12.415576608770461
Pt 9.79394056610325 8.890797277445905 7.8812898101029285
Pt 10.191777198286061 6.404089996630397 8.289653637604138
Pt 13.961221642343963 11.733437190479368 10.310442476954929
Pt 11.748559483037898 6.981725978554947 10.326090567123597
Pt 12.26660502401285 8.243575949523219 7.989277813957925
Pt 13.59051992088326 10.508587230230967 7.908024026211374
Pt 13.371485701488734 9.118845987456773 10.169880451953437
