32
Energy = -157.39980607 eV
Pt 14.19855408970455 9.94865692448474 11.127451694114049
Pt 12.699348884501006 8.761715592715285 9.181891449614724
Pt 12.434882955392512 8.024751274476106 11.730691249040765
Pt 14.544884572889979 10.590874595910572 8.629063060380634
Pt 13.418623502690268 12.437222380853404 10.044239776968654
Pt 10.262216580804484 6.706164795522294 12.435354903115547
Pt 13.321958195897041 9.759636209848104 13.636579667829334
Pt 13.607791946774352 12.203502350624547 12.624173246769924
Pt 10.62832127413174 8.435575624026312 7.509359229506762
Pt 11.62575130302797 10.469566009070084 11.378455673071672
Pt 10.503526239734676 7.467967726280932 9.930357834958555
Pt 11.33026443516081 11.581536880037724 13.866604153190234
Pt 12.34957305471705 10.393973319039583 7.041400629841189
Pt 10.849626470748976 8.944170588814227 13.688416954853473
Pt 13.427116824454878 12.72443484249359 7.443133693023805
Pt 8.468124539098335 8.046257582313444 13.984715227096794
Pt 11.290100773921495 13.041021506598755 11.527986701388011
Pt 11.06459218930985 12.659175829485681 6.325146189731347
Pt 11.200205607566602 13.286771931369783 8.882798975388354
Pt 9.106347572153492 10.542032565165535 14.782529444415628
Pt 10.735583762535612 10.731804624056622 8.994581840861787
Pt 8.283590017895252 7.966536921618668 11.363274949557626
Pt 9.075934702532885 10.456117028232628 10.967353486185761
Pt 8.451954426209737 8.89760130749952 8.86261378817074
Pt 8.998757876482728 12.327645865213194 12.792677031072003
Pt 9.29852232573159 10.702205882915402 6.909181057518344
Pt 8.984358831990923 13.035009721937953 10.238760900284701
Pt 8.804198293655318 13.212269399106763 7.58068338090461
Pt 7.298794576904781 10.151446559727182 12.894709900450366
Pt 6.4524815611977795 9.620067779603183 10.424027296282492
Pt 7.3826742780594445 11.403354513991868 8.740376872351888
Pt 6.713598438443047 12.145398034525194 11.258806908095925
