37
Energy = -183.79169432 eV
Pt 14.26545487178875 10.479551374116049 7.961602696753189
Pt 14.112853733384599 9.729639781622122 10.526842949808938
Pt 12.331360040661881 8.740561856097917 8.780093738125215
Pt 15.177256322435644 12.08712216924014 9.881894792125987
Pt 13.319924628269746 13.047744853977527 8.256262959019631
Pt 9.867220787217535 9.211909524048927 7.68680271433979
Pt 11.758714603120902 10.954850835512856 7.308695063147227
Pt 12.212927144713715 8.08086345018595 11.365764436816619
Pt 14.788217696464935 11.650026689704356 12.377237079069621
Pt 13.24750416142024 13.476042078251421 11.148902032411954
Pt 13.720199493777999 9.319336495854998 13.092909510342736
Pt 12.155732856380318 11.421062690997298 9.904196512034499
Pt 11.550942657110134 10.674646984069625 12.262549145618076
Pt 10.352832715415618 7.244492171029503 9.603807816689542
Pt 11.02627095414443 13.450511864138806 7.0110638467150554
Pt 11.318667226885685 14.261589807187104 9.534335857735824
Pt 13.291379226524917 8.8650772990388 15.687476434068198
Pt 12.46351852560505 12.702800654325154 13.58597907415109
Pt 9.302442607198442 11.760233422752684 8.200819432579136
Pt 14.17031937186414 11.205605165914589 14.86108855482252
Pt 8.998789694480076 14.38432314482683 8.284461576354285
Pt 10.088349774250833 9.735835556006068 10.251744722608978
Pt 9.873095319877043 12.204206211113133 10.9561934073532
Pt 7.688152699750823 8.424600682292581 8.79127774881234
Pt 8.026980153819478 6.528479845287343 10.55814628055384
Pt 11.505679928948187 8.082147063325305 13.981613709418804
Pt 9.78023170611035 7.302888778240601 12.311590398103103
Pt 7.338406138511732 10.834311724458619 9.7032688209744
Pt 7.653475536655087 13.3447126944418 10.25223852836096
Pt 10.927311650044938 14.249531371276218 12.181743937325448
Pt 11.465634958642891 10.645072095361634 15.039984636095573
Pt 9.136633702362198 15.485924758009661 10.695099726268577
Pt 7.9282251249567075 9.002915317608052 11.503038941519799
Pt 9.414817202518392 9.70110652232595 13.603979845426377
Pt 7.845687315009249 11.466700850571538 12.32909928536883
Pt 8.291896429131556 14.099502736290404 12.770100321954542
Pt 9.82538968077196 12.366568120724779 13.97059010735244
