34
Energy = -166.45678638 eV
Pt 14.623195973549576 10.188882501917226 9.921626054127456
Pt 14.966392460138872 9.257273468847547 12.29936310713951
Pt 13.90116695963479 11.259438151180374 7.654149118083299
Pt 13.559129959437106 12.684844880878005 9.789338799479898
Pt 13.906561069104844 11.773909088817629 12.227653521351401
Pt 13.278784487466282 7.713628918807729 10.62667014676508
Pt 12.577017040350231 9.037415575866449 8.42519972323543
Pt 12.710436101105492 13.555844338127393 7.348556097517523
Pt 14.133299611260714 10.455039443114183 14.459632966406888
Pt 10.786844130830604 7.554967401752995 11.528183299395073
Pt 12.18234806982733 10.034839968059222 10.734269012006573
Pt 12.513398118230398 8.801836485372522 13.090363045079537
Pt 11.2815046430724 11.309974010842737 7.684469776882581
Pt 12.42991884561657 13.89219306946118 11.813286192843371
Pt 11.462136441832314 14.445737939994677 9.432011740210335
Pt 11.394132047516099 11.832959460984736 12.922849229638675
Pt 11.627752138980476 10.457745575256947 15.02576817827733
Pt 10.724221793528448 12.053705238392848 10.195630583429828
Pt 10.052009887502598 13.687541604884979 7.339328831597399
Pt 9.893318746164564 9.243335312538314 13.379160327741705
Pt 9.340135071505015 11.596360992373258 14.573508208189569
Pt 9.581496062145435 9.824755592909353 10.778811053233461
Pt 9.96568445387283 9.168844955402392 8.271659615688796
Pt 9.122556913386875 7.09736032308018 9.514950123240347
Pt 8.925775148835834 12.80415932752619 12.200808201422667
Pt 8.174263223050724 7.936717741742303 11.887362920169496
Pt 7.5919919011446355 10.65022229332465 12.921598889883642
Pt 10.074408668846164 15.012804083103651 11.5297712521878
Pt 8.720708825958798 13.631699254791219 9.624636118905233
Pt 7.489770764944088 11.463270316291473 10.400046742456565
Pt 8.650163321516045 11.491486575554507 8.01375703138762
Pt 6.118555028948417 9.368535186780456 11.185381771443993
Pt 7.402651909765443 9.300306133547418 8.800695154622458
Pt 6.524529776193457 7.111726456333604 9.963475224010654
