32
Energy = -153.1890617 eV
Pt 14.787038337907118 12.136737507644611 14.511148835662224
Pt 12.922752572733584 7.831741421434424 13.831987246160837
Pt 14.31594309940912 10.003928889297981 13.29565537033737
Pt 11.837543512821059 10.20860434005739 14.394225746458194
Pt 12.608632706686668 12.143884863885221 15.853671889634386
Pt 13.763884569219709 12.180225960646686 11.938541786208432
Pt 12.096288192168945 7.865554008804706 11.294477544279031
Pt 13.835602621137733 7.6342227330613115 9.436840727254548
Pt 14.109560717252531 9.983452402157752 10.577049415088217
Pt 12.769465201290144 13.731985451126462 13.842296589089255
Pt 13.119261917729027 9.699956922876709 8.132660260187336
Pt 14.750197629296173 7.811940376286574 11.906197160451613
Pt 10.44638119063682 8.430084853535313 13.231150670415202
Pt 10.520950471747863 12.441528647123242 14.248576193697406
Pt 13.15283021177794 14.63222661138289 11.49768617107618
Pt 11.608039561528171 10.63995812470997 11.597623289189189
Pt 8.530378548816586 15.929157596062842 6.766712873059375
Pt 9.148751185538037 10.287629601518308 14.545850601161495
Pt 12.711643529465398 11.895123937659815 9.521297047677765
Pt 10.65399703346879 14.493521075599634 12.474347033634341
Pt 9.841440181357953 8.95394315190006 10.683707076027826
Pt 11.87188572941023 10.730164906757294 6.219750305393117
Pt 11.262661061978575 13.988176938356524 9.905178808077011
Pt 9.034174242065498 11.06970445985949 12.037484632845867
Pt 6.9864071227038425 11.346369411454333 13.72076233921022
Pt 8.134967685464277 9.874082589521239 9.029964265856346
Pt 8.396403080174387 13.352363734835347 13.122296688964147
Pt 11.1032573848598 12.661858279582235 7.611199978141991
Pt 10.59188665858096 9.869478286230065 8.37687621924887
Pt 9.473065675242598 11.962512826859573 9.641974528266545
Pt 8.671377421767188 14.188971378771852 10.75958409528294
Pt 9.233538019508263 14.311115784745118 8.28343168570787
