30
Energy = -144.38244689 eV
Pt 11.076473400384977 8.113210891479952 7.530543362599534
Pt 8.953420405840303 11.65134154760623 7.562908829987764
Pt 10.772909901813373 10.32375131523899 8.72441952062209
Pt 13.509866297386303 13.046332391888914 8.21477914605211
Pt 10.969017512372739 12.921998710527424 8.66913279990088
Pt 8.989027172130088 7.120435478637857 8.434771087506938
Pt 7.072510801755018 10.56694576854193 8.904242998090027
Pt 12.238993021280876 8.412763252623188 9.774167253545704
Pt 13.189029210674304 10.95041468751191 9.654565019084552
Pt 8.68604772990509 9.058818302140178 10.122862719676538
Pt 12.702836948217588 14.535958781475976 10.118197754025429
Pt 8.626265293925737 12.208183607016299 10.063833772729431
Pt 10.190880356851398 6.996191713324949 10.676149204664192
Pt 14.517699607502653 12.799658602072057 10.828537314538554
Pt 10.500316382545872 13.689279441545036 11.13806987645003
Pt 11.11266190349069 11.06172129826103 11.391459913099323
Pt 15.950380155909963 10.818930637870196 11.45819358697445
Pt 8.271539699188676 13.271599468504144 12.390373130838668
Pt 11.652240974109501 15.940837527608847 12.067251456856791
Pt 8.925946913886342 8.103851938220775 12.697962738533077
Pt 12.989389701060153 13.869009717142996 12.767825702464926
Pt 8.66696590531733 10.655785661319365 12.244660985636605
Pt 11.479879908068183 8.510860360419246 12.298793896422756
Pt 14.150697160226697 11.614674028251605 13.166332228246027
Pt 13.793481159918505 9.439960388507583 11.60938879267882
Pt 10.49047426126989 14.193853076059826 13.673144741346592
Pt 9.121487682525158 12.122279521635303 14.546793764638604
Pt 11.701798851641986 11.879361299004232 13.946744270495724
Pt 12.791161204308715 9.584229537888202 14.195279407537274
Pt 10.120499096742689 9.751659667926873 14.342513345006967
