35
Energy = -169.47214053 eV
Pt 12.92224429510386 14.086651003160938 9.838413981809843
Pt 12.786245137556726 12.802012754938774 16.586369732187396
Pt 11.95727627118073 10.824771275135767 15.016482564994085
Pt 7.891156312960184 13.200531976020038 12.66686445212652
Pt 12.455616210034881 10.402767222770823 9.81167955452334
Pt 12.197080849658738 7.839185513546216 10.704622060976645
Pt 12.811317321307437 12.345776932640307 7.878629371157949
Pt 16.440265884569943 10.338875011588119 10.543006186006428
Pt 10.633838620869952 13.57263604889389 8.676826939206663
Pt 14.508784539155446 12.052925169479666 9.929577969825255
Pt 8.462819863933623 12.595401203476964 7.644013781132874
Pt 11.9419243741914 10.936893315487161 12.446313648815076
Pt 7.845783620542319 12.718533529565779 10.123254558797546
Pt 10.001062992969393 14.618472189232582 13.63889417473381
Pt 13.869500234123084 6.233765441509701 11.530454427368987
Pt 11.062035185918939 15.91147944231084 9.662151725454443
Pt 12.458329374367992 14.132621181290512 14.348069694900497
Pt 10.394782769201537 12.782180259502876 15.47011222665111
Pt 10.474461529415628 8.842151968933708 12.359208317656169
Pt 9.280391677739903 11.130681063397722 12.97288376960786
Pt 13.544904992295601 13.078396086652209 12.17317355559792
Pt 14.740042329759097 8.459101943553515 10.988819946809697
Pt 11.93035611319437 15.163089102253975 12.039492478334726
Pt 9.827730975036594 6.886392636827357 10.776586079572715
Pt 14.142172829006862 12.029783462865963 14.506640528013687
Pt 8.065764345379215 13.890734710836488 15.231534719887966
Pt 14.523560637991073 10.674959346090077 12.319960035272835
Pt 9.633781101752815 14.24793722589538 11.08586193977913
Pt 8.355451454533425 11.313510373701519 15.371961587345448
Pt 10.055188982661344 11.510935279791019 10.556713719095903
Pt 10.136944984533164 9.082728523030303 9.584190916088184
Pt 13.890191227309673 10.572340224909082 6.536537579753571
Pt 9.94614858832871 9.359286962577238 14.803671022650763
Pt 10.500353236084614 11.07657559535836 7.958243783106679
Pt 14.756729067153524 9.730153952596751 8.663020900579214
