33
Energy = -162.84370221 eV
Pt 12.120257779927266 14.520167008295893 12.29190398808489
Pt 14.022936967321675 13.046548123411375 11.225601610419012
Pt 10.087775408761996 14.962455778829083 10.707599339070937
Pt 12.486390476773792 14.273092477264584 9.590839525104768
Pt 10.629816167106108 15.31473637896373 8.121850028594118
Pt 15.394753587522091 10.925242743113113 10.656812135229618
Pt 13.442298009981869 11.795410596605336 9.007173111560526
Pt 7.773341606596298 13.624337353288752 11.098338329148959
Pt 14.234340696146553 13.864644724354383 13.696774500729292
Pt 11.302005660575723 12.682284888268645 7.733835692388771
Pt 9.145365732367095 11.106387256420177 7.435400057459809
Pt 14.65597481998897 11.340527850133846 13.263289229236229
Pt 12.36300890281349 10.987369686576573 11.686087350299836
Pt 9.84385154722958 13.135887437038438 12.670479411288545
Pt 10.664973149501906 12.328409209144748 10.303277378763255
Pt 8.892017363705119 13.473857548076813 8.667613429524605
Pt 13.386839167915436 9.321494578353681 10.00710257865711
Pt 12.096372016029921 12.317706847938954 13.890155601208031
Pt 9.985363947285032 9.960720079969123 11.227166167070717
Pt 14.831878253373912 8.930271433036465 12.305881327646047
Pt 10.151305608776227 10.622837277254295 13.813115069212165
Pt 11.342333239166383 10.14521962817006 8.569481131567752
Pt 7.949800710411349 11.340537184206541 12.35030440692561
Pt 12.66195774586574 9.58532587661357 13.848572365244914
Pt 7.815323035514655 11.381251880837079 9.680274497677372
Pt 8.885457396134775 9.030304232811186 9.032887332430258
Pt 11.166920884230077 7.9077451186810315 9.958468501425592
Pt 12.793464897225466 7.480124465507873 12.01493513415626
Pt 8.082410987092933 8.95314889186837 13.321347919750625
Pt 8.720212691827413 7.454307823428535 11.196636736436362
Pt 6.887582467197503 9.277742442923207 10.929604240669475
Pt 10.5520097888504 8.09957245029671 13.215384113028247
Pt 10.748958539252305 5.945129792755522 11.740962520157781
