37
Energy = -183.45340037 eV
Pt 13.636479503953916 11.992566747574475 16.66390700854252
Pt 14.953463220399268 13.494800370098565 14.828442697112918
Pt 11.083473319405844 14.777064459968821 12.98334344109464
Pt 13.134794358017032 9.430133730890281 16.351474252569652
Pt 9.981026349412927 12.662102306073075 14.058020783817682
Pt 11.287089942779795 11.215543872845714 15.82884036617932
Pt 8.611288019573681 14.075547422056593 12.351547314634873
Pt 12.441332785847965 16.374480720631805 11.335362591436859
Pt 13.730198540260762 14.97184116006221 13.086325943326216
Pt 12.348843020009955 13.511825901994476 14.896112540488655
Pt 10.076148765684993 15.53245074610667 10.608538001090375
Pt 14.571181453631462 10.920163423934012 14.464563375310691
Pt 8.808369804968814 10.909753420251878 12.213049954487476
Pt 13.931321889571741 8.454757552651785 14.077896879848547
Pt 13.499995148908525 14.151336492609804 10.539949142435088
Pt 9.185342423515223 10.191076871376367 14.631667853366578
Pt 8.034875647305906 14.105000643570332 9.821330184210064
Pt 10.683424478664728 12.707082766734773 11.340676115875432
Pt 12.063464484846197 15.527275178790008 8.821645809730356
Pt 11.465576502181774 9.194068020518444 14.073429954972116
Pt 10.35766081279363 13.550706028838585 8.800583257744051
Pt 6.857760193189833 12.359723308431796 11.352884230149284
Pt 12.388408558015277 11.536797129960075 13.0650927964905
Pt 14.680404665250546 12.624408329314592 12.321931717333829
Pt 14.49626025328605 10.022868186971726 11.939234674904368
Pt 10.382089631918516 8.97843881616966 11.682569195373233
Pt 12.7606709781977 7.855817475012059 11.926642204616975
Pt 14.257488201458598 11.726207594306755 9.924021754386235
Pt 12.835950216948948 13.103785389083365 8.172518593119374
Pt 8.756302129625352 11.544722562163551 9.601700683622772
Pt 12.015367439297831 10.673675313674872 10.620992950269791
Pt 13.619800295627769 8.892638181303658 9.676959195433366
Pt 11.367587513953454 7.230856036172799 9.857671673464658
Pt 9.592507915906435 9.118633724146317 9.244132580980272
Pt 13.552954929709719 10.667968497881724 7.631444146199474
Pt 10.97973628955269 11.100851648999322 8.234856170064953
Pt 11.832058848015862 8.679109275668843 7.719927434768053
