37
Energy = -183.96854502 eV
Pt 10.101793014400439 8.658228976736392 15.034086194044333
Pt 10.195271219967479 7.200126862817119 12.868504435835984
Pt 12.15447435409871 9.043847304899373 13.255688144763356
Pt 7.902613875254057 7.820889348674931 13.846537153814847
Pt 12.487393662300988 6.5043141368945205 12.04089193284073
Pt 10.719604192672408 11.061282590790352 14.221403635369416
Pt 10.582610380249594 7.002146723378435 10.213608348001761
Pt 8.110153859355954 10.456509930613779 13.885288407794114
Pt 8.294298741158652 7.878825862909368 11.14870896701676
Pt 9.828803366082981 9.89894866670492 12.058048939974935
Pt 13.081369785222433 6.6677103980151555 9.465260725868633
Pt 13.767384776080156 10.94169969569342 12.316975323901284
Pt 11.349702226786976 9.505151793654951 10.065080174068807
Pt 13.588173548457036 8.69296478651035 11.034997133305632
Pt 11.773896568000934 12.599537534215251 12.503131285887479
Pt 6.274071246905141 9.138653770394363 12.294470011616932
Pt 9.159004983584806 12.797429124410488 12.802009388785107
Pt 11.621565283231934 8.271453098940476 7.805405768101191
Pt 14.06203966430099 10.83973421812586 9.659232211704355
Pt 14.212667596822158 8.660199035628066 8.260597116876774
Pt 6.743069046939978 9.45164795145164 9.714660837169042
Pt 9.003672382982764 8.337615011845262 8.59672460701732
Pt 13.629178182303404 13.157409781175625 10.715703580182636
Pt 9.112964819135962 10.84173427560188 9.661779280682028
Pt 7.268706562714467 11.430994726045885 11.577119626628864
Pt 8.39036854439028 13.349951582680266 10.248243906580553
Pt 12.761084625032366 10.65475171110275 7.344000690472226
Pt 11.343155560990937 12.082173726066008 10.040926789130019
Pt 13.89974626582882 12.939111717119186 8.058577642827291
Pt 7.514391014189602 10.24824280310035 7.334002095834251
Pt 10.606088763313004 14.420209420049597 11.037276035698593
Pt 6.459123636054983 12.030323290443418 9.063396478644096
Pt 10.159471451685198 10.418490551509407 7.200602794037215
Pt 12.298569480170775 14.79343303133733 9.02035872421099
Pt 8.630846085082363 12.628299405937918 7.570137334686591
Pt 9.700062710677344 14.826292422914316 8.535149675141795
Pt 11.260997962543572 12.812475998181412 7.570956268839721
