35
Energy = -165.80639269 eV
Pt 8.933668418404235 10.899740682385005 12.19675613332696
Pt 7.49921849215745 13.071654577974877 12.472090242104366
Pt 14.496414501640999 12.706102783243194 10.9735800779742
Pt 14.574266457764384 16.01595796856364 13.12063903433416
Pt 15.236316648298988 12.22317192876327 13.449142134070636
Pt 13.967760870375603 9.986083575761846 13.478099185619564
Pt 10.353192892561735 11.093147904554822 10.116153832429964
Pt 16.525854038852 16.883214887161138 11.716614550723872
Pt 11.485714373904626 10.61445907262579 13.713507654215105
Pt 16.413013847047484 14.290620500020347 12.239299218264245
Pt 6.153839601734058 14.463384993422725 11.182149602017128
Pt 13.322737294610288 8.253976457244004 11.66521354459127
Pt 12.770814086012 10.678333614169816 11.027651204001486
Pt 13.380083435034473 15.221784406191636 15.248002896363277
Pt 9.609066667437196 11.79366522168111 15.057705818382349
Pt 19.331729241529185 14.939746691412031 14.460698403788031
Pt 11.890816984356523 11.205854027597104 16.145510543633915
Pt 10.797242457310277 9.085380795321557 11.79328409798085
Pt 14.029424958074705 12.82105780188418 15.61179008533041
Pt 10.51073018008857 17.70040829521046 13.361901459865127
Pt 17.870970431737895 13.043547739411691 13.964044697470705
Pt 9.96635576819159 13.28485402257455 12.712912783529086
Pt 11.78898315158076 13.014935018767343 10.966452294733033
Pt 7.3306807831416645 11.254708428130717 14.17689806714581
Pt 15.274024044791641 10.044640425474038 11.1991762077513
Pt 13.190658453035088 15.0363748062327 11.24207618706582
Pt 17.165626083698694 16.075058471140487 14.1510760900052
Pt 11.386338919697428 15.411044856763766 13.066308242782123
Pt 11.694796542910275 13.360729572596568 14.640912700146027
Pt 12.843965203824471 17.56207902126632 14.171954405353182
Pt 15.406499303767635 15.220750251594213 10.07746489128578
Pt 16.394094920883425 11.763756795385678 15.645310717121376
Pt 15.14391915564201 17.122304913615945 15.345826456897225
Pt 17.088713960011784 11.756102304085978 11.764123882444778
Pt 14.302789664410861 10.23168902229225 15.975994491771116
