31
Energy = -150.3541827 eV
Pt 12.41969627853343 10.868916687252701 15.097366828670673
Pt 9.94367538920813 11.776617810211285 15.04975533351333
Pt 10.319775969698458 9.228020786407136 14.575280507154545
Pt 12.434340947526088 9.152710645559697 13.034337415391661
Pt 11.792351885367419 13.298739071945088 13.909354777996194
Pt 13.413740694806345 11.583452985680237 12.674701833759663
Pt 8.305192147559652 10.779512263690215 13.196670394157456
Pt 10.783579424639838 11.257041683162678 12.506137081846235
Pt 8.99629747341727 13.552411152199072 13.438999270359618
Pt 12.045161202254613 8.307392403202844 10.665699273342502
Pt 9.726810794391593 8.848370141526866 12.009146516765485
Pt 13.261305727847448 14.053659789084497 11.857619533615749
Pt 14.260703792329744 9.625387182550226 11.147146376462745
Pt 11.322276609663641 10.94557341675591 10.041640906252665
Pt 13.72870724110833 11.97035697482769 10.06922315320215
Pt 13.308680802051386 9.676699029418064 8.65683971444469
Pt 10.67783594470887 13.806011603811612 11.455954078992644
Pt 12.007309007544075 7.385266665188354 8.247479227676145
Pt 9.843659779695653 7.098520742939305 9.998368427056963
Pt 7.339809383792479 9.895545591943362 10.917936507249477
Pt 12.345919700333218 14.050700877170511 9.378045275171303
Pt 8.368587195589004 12.487428244208704 11.13841855353455
Pt 12.117623305684932 11.907325901333664 7.730155650252548
Pt 9.321396211410143 9.504737792089514 9.404758119993627
Pt 9.985397480123265 12.999018413590932 9.07295179611163
Pt 9.479389601581731 7.229184195462352 7.386395169076003
Pt 10.936111309558495 9.534135769427449 7.312638395833193
Pt 7.362486851361735 7.890889560034379 8.966718498369582
Pt 7.867630322354579 11.525972110503371 8.785885334774994
Pt 9.613431413632243 11.739864203077877 6.785309643157748
Pt 8.171060635827455 9.54627266993175 7.020031788821377
