39
Energy = -193.27008408 eV
Pt 12.777488836537438 16.07576334464743 13.860608590447656
Pt 14.560475627278745 14.598113803393643 12.575182715530419
Pt 12.042347109608384 14.39894984149689 11.983241154878892
Pt 8.055800953942299 14.944059046093185 13.851911070021012
Pt 10.662720760826609 14.462156113135466 14.316738130164255
Pt 9.48215261807307 14.127408752960157 11.878389459205128
Pt 13.16863988659428 13.702588242549488 14.732143720848546
Pt 13.571264724570153 13.090949334750086 10.38630742271577
Pt 10.968643543603669 13.30845833738268 9.8922495276258
Pt 15.627107562929268 12.829146548382596 14.253714396930041
Pt 7.109585619711503 12.988042766788592 12.31291384227683
Pt 12.530413978869603 11.815662499175088 12.549866614151771
Pt 8.923689937168218 12.505911046320739 14.181111823094444
Pt 8.308005024424546 12.87122462526741 9.885149133286905
Pt 11.261078975365438 11.932784845460414 15.121038338463128
Pt 15.841984114765868 12.511075824880642 11.701065778174193
Pt 13.804440129203948 11.377779194873801 15.618942289294187
Pt 9.742326660349079 12.686946503081186 7.697456271760221
Pt 15.643501976520492 12.190173707159397 9.128439635347076
Pt 9.641075217840664 10.017736252546912 14.355006892508351
Pt 11.140011507181804 12.412905542304639 5.651299095491896
Pt 7.093124331155042 10.666558797422447 13.775655486149413
Pt 10.1354701757378 11.318695368576853 11.79653609350063
Pt 14.730914954085826 10.496607133994683 13.34855963144508
Pt 15.042379839265232 10.251110136354068 10.775646369741443
Pt 12.036283811927914 10.839830632681098 10.027863464516283
Pt 13.939785333352997 10.46006016474334 8.289466218244666
Pt 9.023344684633626 10.5744225845939 8.97422510202903
Pt 11.424452369107447 10.690848595525274 7.417331667854296
Pt 12.283784185807542 9.696732284867197 14.148672813610878
Pt 7.677715212932449 10.643048499905893 11.212824006316843
Pt 8.117729122344091 8.527285283204302 12.716766882113996
Pt 13.313875479833595 8.716435585890304 11.962341528745792
Pt 10.711405356755506 8.722573177447526 12.296971570900839
Pt 14.244124156353191 8.097477613811062 9.581103188000187
Pt 9.981693148780131 8.458429930151702 7.8925434049468945
Pt 12.609135853252575 8.354148636463682 7.495406662862483
Pt 9.004900698254001 8.350804718310599 10.297549463961115
Pt 11.658730155470147 8.178698317819329 9.949364177257639
