32
Energy = -156.79211934 eV
Pt 6.646632370501088 8.642664863213716 12.571963495254904
Pt 8.7281911113951 7.397791744836833 11.556431325338327
Pt 11.05332818979746 6.7004084466263745 10.523062226783523
Pt 6.9626343811948335 8.830217067172716 10.015631969007531
Pt 9.278154778697447 7.973145099790121 9.059757420807697
Pt 11.607034162366972 7.2524604796898045 7.988597684453136
Pt 13.159357197638606 6.662480861238644 12.05192468115983
Pt 10.996256196888327 7.931461204209976 12.941677012318545
Pt 7.591392775970923 9.77862836362071 7.67731067813718
Pt 9.03020672141899 9.56512285255923 13.081575788334655
Pt 7.3308445930951605 10.974161030767425 11.593768298968167
Pt 10.00523768127004 9.021594237306246 6.793289540806261
Pt 11.064698440004348 9.351236674860836 10.644485018228666
Pt 13.385343792902598 8.081395359096367 9.83604341622755
Pt 9.02982231475463 10.766755749467233 9.667793101510526
Pt 12.109287432715718 9.840213239271044 8.288457397852724
Pt 7.6837858158303005 12.428976180933821 8.302754369635243
Pt 9.215491641685269 12.190261722924273 12.981138857847496
Pt 13.25114428563977 9.289985571961642 12.244816206164096
Pt 7.998521038824787 13.324238342077567 10.814772408986823
Pt 10.16080261882572 11.523560660546256 7.508855997932292
Pt 11.35846036326208 10.482072436349902 13.676717468221826
Pt 10.907639007925123 11.886613178857917 11.022981123816773
Pt 13.94578059930553 10.662073866029688 10.032807513825164
Pt 13.166840070413873 11.881455466092788 12.297890517983898
Pt 9.853536193706578 13.755697354522184 8.970941818505764
Pt 11.474660676229448 13.132864121599251 13.962227558857549
Pt 10.301183777811643 14.292532570794075 11.635802141309844
Pt 12.232939225345845 12.375781635533677 8.824568434434939
Pt 14.186617430211033 13.268403684745781 10.274129506007556
Pt 12.100996321127283 14.886243917532344 9.661589548073495
Pt 12.83144981511494 14.501801330350625 12.177837170328317
