33
Energy = -156.10332837 eV
Pt 6.6779646902539875 13.21463345682474 10.462158173178887
Pt 14.07085243853944 10.452672857217925 13.517332945334392
Pt 12.835750063912304 11.294147270937424 6.5596989690774326
Pt 12.095769342031213 9.354639625349517 10.92770210422864
Pt 9.071985194600826 13.219966208750984 11.631876484877578
Pt 12.597759895610098 12.518249439277456 13.582867182485623
Pt 10.011463749658297 12.305160413559967 13.844595461503404
Pt 9.81831800965036 8.576959138147812 12.283623263948005
Pt 11.11911760384636 14.062039469882304 9.740530654627758
Pt 11.51490186326611 15.001106273007846 14.93513127549996
Pt 13.648763463732926 14.956204732681579 13.489728755100261
Pt 9.228904889825436 14.78727064195217 13.783052210737312
Pt 13.522215874899704 14.222328592663063 10.719902396022414
Pt 11.329655482755618 14.633203652343893 12.233855851859815
Pt 11.470036228117605 10.153703289413262 13.487122460777433
Pt 10.768020341073134 12.474658580670189 7.588472127563037
Pt 17.253328824594163 11.494770766249141 12.473106942608954
Pt 7.564946827861581 8.870664373812287 11.216299756067231
Pt 14.264007488506758 7.974013449415154 13.915065461044483
Pt 15.170787399302577 12.764311852416858 12.819171909742407
Pt 10.77538142523309 11.615640835833043 10.518508542005579
Pt 13.143716941560323 12.553776441927306 8.777210193368807
Pt 12.126443030168971 7.614176681975947 12.784633708356441
Pt 8.135517047431254 11.121482673499928 10.23982729976387
Pt 11.714222802001462 10.109958665196789 8.521260329728074
Pt 7.021049238866193 14.602793393970035 12.590128592486638
Pt 9.645176031246947 9.124063131437032 9.672516050595348
Pt 16.391261579765818 9.46531192423063 13.484071184820593
Pt 13.338695515341263 11.620867777187884 11.20283493152107
Pt 8.752711077599109 13.267214411179529 8.892238016524896
Pt 15.62297078792954 15.13009247563167 11.938026825243183
Pt 11.530910008160516 12.666880173074302 15.91039251687915
Pt 16.462373608206228 7.4720160958321005 14.952036187971217
