34
Energy = -162.15809078 eV
Pt 8.717943586327012 10.617234577397967 11.268295748037138
Pt 10.445225167786454 9.021303844212227 12.288739996148928
Pt 8.507019055121974 13.109733887367174 12.06404338361397
Pt 10.989971872449917 16.612448728090083 10.9619406967149
Pt 14.252286412230735 6.096466257005683 13.310204343142637
Pt 9.16850996897548 13.494784834141992 14.512754652030571
Pt 13.872044946807991 10.12728891429589 7.979463772515648
Pt 7.644106779748169 13.15394078429898 9.634063063658882
Pt 11.083382165849262 10.182118603588313 10.025645334971411
Pt 16.4198675141542 10.590124165538798 13.259901563754614
Pt 11.43405743097843 13.087243984742578 12.203903322118844
Pt 9.172848040889003 14.576002347405561 8.006901305404206
Pt 11.148849134644175 14.26718715753089 9.693758370200598
Pt 12.007608705043138 8.733809701425894 16.86408898848821
Pt 8.7153407554745 9.882976563425503 8.78429911834673
Pt 13.335405766305744 7.648410277708278 15.094046569426759
Pt 8.825748693583497 15.281677336302039 10.488736539318106
Pt 6.59730017968794 10.889790454454005 9.872039876863349
Pt 11.612158643419352 9.51079450522299 14.562332036489806
Pt 10.019356032543866 11.290354337876332 13.519806317620093
Pt 12.486298323890562 12.111372684290412 8.845455199180826
Pt 14.679200299063044 12.253071530672125 12.422756731604418
Pt 9.905944411032308 12.171293095128787 8.840796206971202
Pt 14.391051422470529 16.386007124914073 14.331320063310242
Pt 15.265842836036686 8.406570441253898 13.587682798730523
Pt 14.880495129977163 11.620556761325066 9.778203597164191
Pt 10.083902314832892 15.187858913309912 12.85429108912336
Pt 12.209348120609716 16.572554932045684 13.180384681682769
Pt 12.738849462100161 7.9228951329022115 12.36787699636331
Pt 13.561562407559558 14.427260088668238 13.077296860683555
Pt 13.47788774571217 13.739196222016863 10.63253170755002
Pt 12.556614640106218 10.755859285699861 12.449211213078067
Pt 13.079018553126463 8.697567629187514 9.930618432790864
Pt 14.838648252014831 9.69793966710786 11.430304193455763
