30
Energy = -143.86630941 eV
Pt 11.827490780941366 13.67248193050966 7.522519880228081
Pt 12.76461630109621 11.435339424004253 8.105667629460827
Pt 8.388685079566141 12.86916976172533 10.275826273134061
Pt 10.698431302870988 14.037867838584605 9.731419112278033
Pt 10.331440838348865 11.535883208032265 9.096189996317818
Pt 14.10409404070087 9.324509067616056 8.175525635853417
Pt 13.787191135068358 14.840932920844608 8.570324264019924
Pt 11.463650851426996 9.170323247385957 8.803670299041965
Pt 14.424865099037275 12.674166673381158 9.648364155048155
Pt 9.341020090884221 7.971207443421018 9.712332123772462
Pt 15.733075895064335 10.53644364461262 9.802824511192144
Pt 11.398105741147518 11.447908442467316 11.476655161785672
Pt 12.422415321622433 15.708334438817763 10.499328780132222
Pt 8.349758701190938 10.244422152376437 10.15262178226296
Pt 13.455170597638043 9.65481070726477 10.63106951821392
Pt 11.167450390165365 8.74516466780826 11.413214319423217
Pt 10.916171466081986 16.25075761222031 12.428111484648714
Pt 8.954300530240806 7.4932706342393445 12.183050611000835
Pt 14.473069254525825 11.460741264006893 12.220557220731454
Pt 8.974028440270134 11.561105798355507 12.498963692290609
Pt 7.4717969775673545 9.500112782873284 12.423836746454903
Pt 9.92677981784466 13.879238653789994 12.153422164138442
Pt 13.013747330025783 9.394959936815086 13.162693949131867
Pt 13.088600067899216 13.554629841861253 11.642101820892504
Pt 10.954898001413659 8.179401780597605 14.002984867531579
Pt 8.73621770722355 7.104643654952385 14.68136335101372
Pt 11.888487348462759 14.25405318008203 13.762544985766462
Pt 10.068125408587358 10.49219791108843 14.521690690409493
Pt 12.193861308153096 11.72817094449989 13.895891721510466
Pt 7.821360598951172 9.416656859782679 14.944139676331286
