36
Energy = -178.01386363 eV
Pt 13.983627676198529 8.66161440939747 12.912973311537796
Pt 14.603422513990447 9.04454529733686 10.400818415143492
Pt 14.325983012222876 11.158782359442727 12.137791566295961
Pt 12.618790034080876 7.373237474386791 10.898970001764079
Pt 11.451608822954157 8.141344289788899 13.218147872188146
Pt 14.149662748584129 11.36195748285857 9.362970077206107
Pt 12.243786249290899 10.658221090283446 13.80152903926953
Pt 14.56296779671173 13.510895634190506 11.070676631821772
Pt 12.401435757579497 13.072948165176097 12.59198189052058
Pt 12.05253291614264 10.126790109843753 11.287994976021544
Pt 12.311880850679602 9.264656010844842 8.88616662748282
Pt 10.527713666786124 6.082213867415057 11.885861754650799
Pt 9.935879545567278 9.703233946806838 14.659813338290894
Pt 11.732284087726287 12.485663322614633 10.107882185361222
Pt 13.450313270160983 13.868528608839178 8.765324124075445
Pt 8.852551596272093 8.00531536131847 12.97534499320001
Pt 10.072534443197974 12.126471217049843 13.530365603075635
Pt 12.391347137242736 15.151356676575084 10.942217845076396
Pt 9.886556543555676 8.832303761688564 10.684677759139495
Pt 10.031677929296961 14.192308293232113 11.749089016858425
Pt 8.151967499977935 6.765957347831164 10.749362431248526
Pt 11.668192817306128 14.086749224450877 6.872304518671257
Pt 7.961703906145369 10.46741567284877 13.08864696763316
Pt 12.00022770784957 11.602523156423452 7.7196816688720755
Pt 10.518143039179732 14.57252023023416 9.164700607328683
Pt 9.867558080086301 10.202110394904812 8.45349028042224
Pt 9.709638694353075 11.308334419426215 11.00937851294699
Pt 10.524938167706313 6.783497055906404 9.354807184885003
Pt 7.784261676585727 13.051597922447806 12.466142916923449
Pt 6.539012905644281 8.678652781883265 11.717555722809093
Pt 9.509322227789859 12.757510065175461 7.500018752952768
Pt 9.176015836068776 7.891547939692083 7.490544007886293
Pt 7.577026513536217 8.866323077901095 9.287335844418617
Pt 7.046475369065399 11.075114049122433 10.721423530514995
Pt 8.316295527067405 13.22933968916848 9.860599623518102
Pt 7.485092652187515 11.284265492951365 8.124669665439056
