33
Energy = -162.73996454 eV
Pt 13.585921071149464 10.693923034282724 10.819615888825082
Pt 11.988158083055529 12.259277785346152 12.17867067003811
Pt 12.209056034590713 12.513369948022895 9.550892445647555
Pt 13.438971852507093 10.607194204770892 8.199812098624555
Pt 13.138341350556418 10.061696971382203 13.362204731611767
Pt 11.621299523202941 12.057345384577943 6.919018200045867
Pt 10.72355234527083 14.208254091911064 8.197519574235097
Pt 12.444389164271941 7.324172860216385 13.449766498448376
Pt 9.214350789030476 12.976346047039735 6.391262661990957
Pt 11.997409109416592 9.521220479136126 6.1886184557589985
Pt 11.933553016763552 6.239438817779876 11.05717231262182
Pt 11.487418635070478 11.703169700866347 14.730425471119853
Pt 12.004927240349003 8.784954919460876 11.24515877331495
Pt 10.38647063947249 13.998007721709081 10.783491860202812
Pt 10.235867600703687 10.895914268433836 9.014210828094255
Pt 11.719714162290424 6.197875433965573 8.478341048844928
Pt 9.51361551020097 10.338616556725706 6.408424382907223
Pt 10.08111484259134 13.54662632168188 13.384245957992848
Pt 10.017361559676376 7.81732206995529 7.020124619949097
Pt 11.738427572928408 8.80767770748047 8.728862957962544
Pt 8.598388858183533 12.996392985025228 9.068722712031981
Pt 10.759634973352338 9.269675338122422 14.026875881776542
Pt 10.111380047687575 10.604119939443365 11.55493896769035
Pt 8.357105214317915 12.574379437020491 11.646075584317044
Pt 9.71643672467629 7.335212079048446 9.667013913057124
Pt 7.323386659340362 11.416639945939835 7.412133715910871
Pt 9.980411675029499 7.34359231828568 12.364108300307935
Pt 8.992062973072757 11.230569008917115 13.98181904000106
Pt 8.27877075826694 9.226837333103264 8.552473327163312
Pt 7.001698215565498 11.052224069989869 9.961268678411471
Pt 8.228464437382039 8.704879776622096 13.777060268705123
Pt 8.199564701432736 8.877596630530611 11.14409216495019
Pt 6.844992030396957 10.653260182434037 12.550573844326593
