39
Energy = -193.89100144 eV
Pt 12.045340491122042 9.439397639377724 15.464438461238139
Pt 10.133792673424653 9.535644081798686 13.453224451774924
Pt 8.569305994194163 9.933028254934872 11.36071527957247
Pt 11.797823196444455 10.993472724515705 17.57569144326399
Pt 10.152355651976627 11.295367543964582 15.535190923703457
Pt 12.542859063057593 8.53781802171354 13.085350385385151
Pt 8.578101823794979 11.774634935774882 13.568594371030217
Pt 11.029588282747824 8.966259368780225 10.947563948144369
Pt 14.545844108821333 9.85639226624528 14.340405749127285
Pt 13.602876466706604 8.291433025436191 10.667136289462428
Pt 15.046194999328405 7.811203465519767 12.795510716919257
Pt 7.420796730930244 10.994285666146332 9.257253686874785
Pt 13.436382423052708 11.797253051400727 15.643254797306342
Pt 12.158118401448068 11.275882555383703 13.283105918560555
Pt 10.237102890333562 11.872646713704157 11.487404444604918
Pt 9.916132121694229 10.419013894171973 8.926487948886411
Pt 7.0089769524045575 12.238827909025124 11.559165379238392
Pt 11.580122650873387 13.376588680962815 16.536892935085998
Pt 10.440758766542281 13.602138510690521 14.243053180381313
Pt 12.334762833563333 9.350404291751836 8.666135785436287
Pt 11.539529926012825 11.18048937746794 6.994586468714429
Pt 12.644461956689204 11.159596194835393 10.673978960637188
Pt 15.082322816171526 10.236697440548483 11.77433754050041
Pt 13.940676982876269 10.204410032187665 6.735112906950209
Pt 8.8531831831842 14.21308863177283 12.24183372323412
Pt 8.716177431027667 13.17178757741849 9.780946794231944
Pt 14.652089588299365 12.333417909671308 13.334374075742216
Pt 11.102394033791926 12.923502782169962 8.82885484915661
Pt 13.12652114084199 14.203464200749089 14.577263672728611
Pt 12.14333530320668 13.494709625331875 11.866400783884185
Pt 13.64508045066595 12.374607400058153 8.216647632170279
Pt 14.892173621677813 10.239790419987138 9.191161319608437
Pt 10.957134118392222 15.660076683671395 12.769146343310826
Pt 10.476303582167155 15.05294382751282 10.210890527551523
Pt 14.884398610086206 12.610812998557023 10.63857363102048
Pt 13.163962411949045 14.4726231142298 9.613059010303452
Pt 14.393232520278408 14.722308626041244 12.154663925314694
Pt 13.217532664857695 16.585053662532033 13.599306308455272
Pt 12.666537476102114 16.59426337310781 11.001411626803366
