36
Energy = -177.85541722 eV
Pt 14.954344274536812 14.18033271858129 12.460105127201944
Pt 15.22623812938213 12.408184342110177 10.557054966526016
Pt 13.01210974384703 13.948217550263848 10.677093116345596
Pt 13.355640361307222 12.214337462249206 8.661497833153655
Pt 12.477623936428802 14.223637902028209 13.28337375136505
Pt 13.84618124760758 11.893182417208449 13.061710201538492
Pt 10.496037744740985 14.361647103498672 11.319033020054398
Pt 11.160381902084849 13.785157476845356 8.868593310228995
Pt 14.58300063103468 10.014120116132991 11.230745759625439
Pt 9.964456438639177 14.21673276109887 13.833674463917484
Pt 12.318949901084041 11.376939902921853 11.001096247576665
Pt 7.948926967824554 14.152030866343729 12.05075681490086
Pt 8.58735125992523 13.644068234790163 9.526113641477245
Pt 13.256335680626448 9.633916104795484 8.914817750051963
Pt 12.407838331443651 9.654851918132687 12.995461907632311
Pt 11.243747528172706 11.890846348541729 13.760544992247226
Pt 8.537665443379405 12.043374775535765 13.551212409136912
Pt 9.802657823213274 11.743003446512654 11.212954432572873
Pt 9.832173598476166 9.71030272331222 13.35414863384202
Pt 13.166917652240949 7.8953545661691455 10.999091717016944
Pt 7.227147231427892 11.806528249485138 11.029390097187587
Pt 9.405310205067877 12.915551602032783 7.133716267755355
Pt 10.723719377839117 11.207876623619084 8.760637346921998
Pt 7.231367500624772 9.90470372140906 12.90237146855584
Pt 10.700673635064224 9.267823737357062 10.615699726456503
Pt 11.47861838997782 9.536486808733452 6.927666008727583
Pt 11.032340198148656 7.449867606853284 12.592623465803454
Pt 11.598754133369871 7.6038104802016155 8.646520839912778
Pt 7.994128049513929 11.165633077570982 8.585177441125216
Pt 11.622203216403953 5.825016224337487 10.545420303941361
Pt 7.795219861999889 9.275325945214485 10.37459596061711
Pt 8.314423544879887 7.6614044383620055 12.473660642051316
Pt 9.13838025734828 10.531465913229193 6.165513850144869
Pt 9.209745958747265 8.847784657513204 8.20369672412084
Pt 9.282482830196749 7.045526719218183 10.042676815658165
Pt 9.469883224416892 5.399866649176367 12.074677198392115
