38
Energy = -188.80704391 eV
Pt 11.910733781548739 7.09076918749169 12.447391217507496
Pt 12.058354068090855 10.157999044245525 6.74180746070269
Pt 7.968116785696142 12.267661323476853 6.131421074138225
Pt 10.555458015514072 13.248443881582832 9.752672967579116
Pt 9.279806937610136 6.54003099147138 7.913218374074351
Pt 14.283403444286733 8.000016263233503 12.360944949500814
Pt 13.902606114485327 8.479950171752494 7.678732424553722
Pt 6.673025361313379 7.224214543808224 8.236580241881258
Pt 5.6976946623620135 11.730403626558049 7.838196808665757
Pt 10.130105835012568 9.111213590671426 8.060650206341425
Pt 9.324364207487896 11.003575470636601 9.72879062433069
Pt 7.8749293397737 8.877428344039165 10.00047373988359
Pt 9.452959793069446 6.278203952222379 12.55217898323053
Pt 7.764392019935157 10.252461796932261 7.753224215173826
Pt 6.478432984238678 11.595886233965178 10.37820342920613
Pt 12.630762635377277 12.082839048656666 10.98572837341373
Pt 12.429206394368688 9.766214874584497 12.166356969936718
Pt 7.9493095272098735 10.591219683657098 12.342479101144257
Pt 10.428666732082073 8.825433839118709 10.567814368180432
Pt 11.811978319955859 7.029282474814916 7.959047900654687
Pt 13.193476636762943 7.54449168142431 10.089561101557686
Pt 9.585889500287498 10.233208496537676 5.587989555639893
Pt 8.418219778091874 13.077723389224449 11.363678497350696
Pt 5.4942149284790105 9.6501353267679 11.885221599040468
Pt 10.401928841775089 11.41691767999308 12.13927861576124
Pt 8.039079602146597 6.247466656624982 10.269224099948655
Pt 5.60354943176311 7.252829522428898 10.690273101024156
Pt 7.476313446046959 7.992944341661229 12.488024720637272
Pt 9.935994170161178 8.902516857790802 13.062965308983632
Pt 10.280335023108854 12.202284794834677 7.261777131776916
Pt 8.002129882290864 13.067580278607561 8.700352016467935
Pt 5.647432832140571 9.143790526534527 6.672710601000672
Pt 5.302225175254746 9.462309703248254 9.274771909660853
Pt 10.596420747645121 7.807318511928326 5.735440735877818
Pt 13.054908220662176 10.08164268276478 9.460243514212504
Pt 10.672856604342972 6.262209719934964 10.19997972136189
Pt 12.585674526875565 12.284132931497714 8.324764696552826
Pt 7.996809469818608 8.109014332350245 6.089595420117411
