36
Energy = -175.45665889 eV
Pt 15.542959928461588 9.423132403910925 10.208022843785468
Pt 14.795434116590824 11.91935830145717 9.792037357746555
Pt 13.407766886028412 11.946259051747138 13.849182187959915
Pt 7.643842407310962 8.324029521107708 12.68589802465218
Pt 13.374165821593227 10.148449618724271 11.454090147410502
Pt 14.728430590429332 8.323931754676233 12.685543512075283
Pt 13.373713436914167 7.767069315193065 10.385478823750747
Pt 15.525456821005758 10.992023224380336 12.548038725879184
Pt 11.185954271782686 8.124972292367115 11.820001381902353
Pt 9.82010298224845 9.046893019737169 13.940628126119439
Pt 12.552072084486847 9.04685015883676 13.94026743159256
Pt 11.185998441673851 10.41528671258636 7.291434798018496
Pt 8.998101923869218 10.148100366378204 11.454355989080321
Pt 8.997738575905219 7.766432260652225 10.385439341145723
Pt 13.445007526642598 9.895889448841986 8.561107956960655
Pt 11.185994052850631 8.224155129008498 9.02088795418767
Pt 6.828403778318919 9.422962241756323 10.208066386422066
Pt 8.926591982586077 9.895608581821731 8.560981196417242
Pt 7.576166739305372 11.919594113921466 9.792159371604999
Pt 9.822616575320541 12.47636833814301 8.329993686424508
Pt 14.790057995483085 13.46624296484943 12.098641350679424
Pt 12.496804419333234 12.671240826208734 11.207353298131345
Pt 12.502642924448953 15.112331741264725 11.990284809962887
Pt 11.186625319841317 10.631546388042405 9.982476590247622
Pt 9.875713865263297 12.671276504802218 11.207423917543872
Pt 11.186040484602279 14.547082297322445 9.54026671073679
Pt 13.820541223471878 14.392901032884764 9.687319795096048
Pt 11.186065243012562 13.487399973097409 13.742484538904996
Pt 12.549361270798647 12.476149475425215 8.33013835860978
Pt 8.551555974657655 14.393092091494111 9.687263486182133
Pt 9.869469567682316 15.112081367666061 11.99055676102148
Pt 6.846517216342849 10.992046853478994 12.5478879949831
Pt 7.582122553157695 13.466862677548542 12.099157394943564
Pt 11.18626861298403 10.903063213816715 12.62729534107044
Pt 8.964384734132722 11.946113583617137 13.849619963178267
Pt 11.186245651462972 11.200139196193797 15.195150359650988
