32
Energy = -157.05318182 eV
Pt 14.12768531705036 12.530842545537423 9.681499226648338
Pt 12.124188799798157 13.168058586356402 8.13940508975409
Pt 15.79176248181095 11.87840449811428 11.554480881105167
Pt 14.642435483656621 9.9324924308847 10.19994551664787
Pt 13.698821378045782 13.146497297848434 12.470015685370388
Pt 11.812999708281234 13.585350691643864 10.690424635216228
Pt 12.935314025480212 10.590758193077493 8.189746843349551
Pt 10.862745633286245 11.383255303855421 6.6997721724765915
Pt 13.984561471490682 10.530789827523007 12.88995575507139
Pt 13.810477503009833 8.085914089161415 11.97071234521484
Pt 12.434761577663716 8.49987036290213 9.803882378033412
Pt 12.219885187243484 10.873203728380126 10.946502761109208
Pt 9.617561568187579 13.70299996195173 9.262607119408866
Pt 11.772278185022483 11.689332957819238 13.744387828516642
Pt 10.719611108253245 8.943413011543807 7.93293917675845
Pt 8.832660326508323 9.784494306078523 6.281344783925339
Pt 10.296831950591057 11.195438786713702 9.242554850342655
Pt 11.780918458684162 9.12848487743782 13.269072536673319
Pt 11.481730504998534 14.27600817734993 13.183254659815166
Pt 11.359076054322491 6.995053365698119 11.759926352502859
Pt 8.420675383988844 12.065280424828165 7.572592810119372
Pt 9.713885673175387 8.384870312826674 10.283354295581184
Pt 9.81295294478323 10.77284375517072 11.767201687375934
Pt 7.726273150155371 12.053350471108432 10.194763124196008
Pt 8.003759860333917 9.697929903949602 8.793993097196465
Pt 9.340144545815454 13.423797692238121 11.843448232089838
Pt 7.398715457960232 9.54435600130433 11.27606672729412
Pt 9.641015979710765 10.270273717865459 14.354296596371865
Pt 9.300213633034943 8.047822044211909 12.876333968331018
Pt 7.592882127893836 11.665867602266488 12.898784879210401
Pt 9.497270124412761 12.893947193023914 14.35476166830132
Pt 7.25558202490243 9.270251868866515 13.904942660099442
