34
Energy = -163.90919317 eV
Pt 11.332707569248385 10.94857006134055 8.097995931837458
Pt 9.780483016837886 13.125330954601136 8.358650376493703
Pt 13.130939018732962 8.672685251760425 9.53416337971762
Pt 9.226237500207723 8.449459702852531 10.34903517375726
Pt 13.332266766933339 9.707178763672461 7.175984580987003
Pt 8.327256352344433 12.868658717983394 10.414817842220447
Pt 12.276309970456223 13.129038981120361 9.059818525003086
Pt 14.226937445041946 14.592795813061347 12.037148326548047
Pt 13.123179119703499 13.386813951558368 13.937347194210883
Pt 6.999020669285534 12.608820310141462 12.643331237639238
Pt 9.64884545492558 13.110703142112413 12.613056198925756
Pt 14.917885141960847 10.670131324108858 8.894825206664516
Pt 9.197043493024253 8.604961022940692 14.972873609980436
Pt 16.014137852810386 15.000073295180576 10.379225598206093
Pt 10.236230492820923 10.955996406333066 14.997465281427884
Pt 11.413051202465223 7.006886755097512 10.671908077297681
Pt 12.060311043729024 11.111093394298644 13.129287837703227
Pt 10.270451568327399 8.097381923775046 12.725782792124763
Pt 10.818190499007438 8.07716983076438 8.423646133866072
Pt 12.69387696950545 8.767255469678254 12.108667430335355
Pt 12.023175003506376 13.371201515188023 11.590942970435865
Pt 8.291343334092039 12.764661205147224 14.996815780796979
Pt 13.05817544152672 11.017233127533286 10.644275472815252
Pt 8.66825414242062 10.764934491619504 8.812193566910112
Pt 7.703277767180036 8.207718824184795 12.586454904158913
Pt 7.77543608398417 10.465865755439328 13.906303371116868
Pt 7.87272207990098 10.44757246434005 11.307194896039604
Pt 11.886432075352873 8.944298780702889 14.639233616037231
Pt 10.784084128483352 13.449018235323615 14.857512677190908
Pt 14.646506350126199 12.972623633019566 10.030561021182434
Pt 10.486667679147208 11.110356709354429 10.922248920990826
Pt 9.69181275354958 9.613083827064843 6.746085879684524
Pt 11.721074172311381 8.194361191177231 5.994856886807433
Pt 11.369268289803768 14.789655616277582 7.443879749639468
