39
Energy = -193.64369429 eV
Pt 13.892939070731568 13.94212153990022 12.100778885171254
Pt 15.90933147293471 12.437463570614632 11.669703878163652
Pt 15.71970314043869 10.843692375798222 9.608849602420289
Pt 15.281895613474653 9.214901643202019 7.492520084412712
Pt 12.233694602096719 14.852564253431181 10.101608095656035
Pt 13.546656406418588 11.052645268449012 7.899848159369796
Pt 11.84878581447885 12.930366900661152 8.275969473155454
Pt 12.790488552664314 12.251461343175071 13.665295701272
Pt 14.490665180437682 10.352724341559204 11.95619750972217
Pt 11.357158066938357 14.205833620512594 12.585277220898796
Pt 13.978589524314435 12.83241508917696 9.807454891384962
Pt 14.045355500243828 8.775557880575189 9.707191676238532
Pt 9.778440968593127 15.548969473950372 10.855044463713737
Pt 12.713848356495905 8.503938952891609 7.500108472638109
Pt 13.053798093163076 9.54994778065447 13.955259872850563
Pt 10.496325269916687 12.882288453735104 10.516471971513466
Pt 10.954696815682468 10.568484235864826 7.556329323280156
Pt 12.19510708565078 10.759645698205228 10.358012991413407
Pt 13.517209734998149 7.916983051602089 12.005688405081667
Pt 11.353647976929045 10.756151629797618 15.416829742844069
Pt 9.297331487208238 12.487325170144452 8.202548416746195
Pt 11.092917900537723 8.058488914167413 12.828986902624951
Pt 10.04669857013926 12.725997363216884 14.212729487531519
Pt 10.914574433065379 10.672789411111758 12.671631983322875
Pt 8.594788981849828 13.614741417613686 12.209341803017221
Pt 11.477863630015136 8.052248313908288 10.221568641914264
Pt 7.910672041722828 14.07914058015145 9.694427402000752
Pt 10.227939357663224 8.05356023230889 7.936118237954057
Pt 9.528088255092765 10.505808543145626 10.543740331668944
Pt 8.835808713301118 11.145038358061807 15.97486293991424
Pt 9.222976301056413 9.249093805538774 14.256329533782115
Pt 7.750428844551873 11.603548439243562 13.637712920399393
Pt 6.779087633021304 11.933398284169666 8.591200198364698
Pt 8.745120153402919 7.145404618831794 12.653307907747182
Pt 7.1771122429208 11.712461659327314 11.12243919786265
Pt 8.460136604786388 9.917712577331818 8.200536811249158
Pt 7.574392884018931 9.390407270080559 12.217951189667856
Pt 8.791328833811761 7.998845211745717 10.17663969286395
Pt 6.464319420441877 9.50681789044787 9.837688025080801
