37
Energy = -184.86504998 eV
Pt 14.744650934993745 11.714811430767387 8.64748362517788
Pt 12.968853411027805 13.414937261434092 9.37412030552676
Pt 14.778055138687396 12.588556222222198 11.090454880129471
Pt 12.948945700170425 14.508145789901949 11.902520525768692
Pt 14.477893031314652 13.103487197799794 13.5827276381112
Pt 15.482425759749658 10.740776089470979 12.921727187109116
Pt 11.161139484373491 15.126354562400305 10.058758268901592
Pt 11.936877920625522 13.22604169043847 14.205971556670418
Pt 10.29107298598994 14.32797825216691 12.400150660319085
Pt 14.470871518753064 9.970411271766364 10.610261967621947
Pt 13.42733011185844 9.436009791853005 8.303651162561506
Pt 12.435739578409773 11.819809191848835 7.331368623288615
Pt 10.432310691024133 13.17114110983666 8.436637126448403
Pt 8.721484172806482 14.314235141003692 10.104119409345744
Pt 11.577721561196906 10.804887033453301 9.664968972426507
Pt 13.39123200311378 10.953879900178302 14.553179486322353
Pt 12.183002016543757 12.000112674813902 11.8909893412683
Pt 9.699197340309157 12.001183350863483 11.02452132593637
Pt 7.801952008710237 13.19550924925886 12.459642632470155
Pt 13.558181145556441 8.967494654031249 12.812169974094923
Pt 8.072934213005734 11.823966239100695 8.734457830442814
Pt 10.768673129958948 10.88220833713217 14.737167236287187
Pt 9.95174764192051 10.784199108148854 7.368050023891036
Pt 11.887842059640601 9.483267858214386 6.170409258178677
Pt 12.417553292699028 8.321938876137292 10.538480566837933
Pt 9.349399185874285 13.028957015464698 14.495048561928161
Pt 10.696655993123125 9.910032963802553 12.105505793761271
Pt 6.400120733866807 13.165630087708006 10.269696243622358
Pt 8.355299798772627 10.800512827685326 13.490760068588655
Pt 8.968422216359224 9.459664052953606 9.537119723305413
Pt 12.10876744077209 8.712763117483542 15.034873640976839
Pt 10.961227205861098 8.28441167492621 8.266246941357492
Pt 7.192564598542697 10.780773614024817 11.02309648341367
Pt 11.328628292582836 7.50720882062289 12.812774947218735
Pt 9.488527044648306 8.579409362890628 14.389602408771065
Pt 10.034698009993704 7.2268008500798695 10.486912726082835
Pt 8.35043501484298 8.662478081896008 11.982686462102457
