36
Energy = -177.55569372 eV
Pt 7.3189834545536 9.846619084621551 12.34382010885649
Pt 6.790118481033312 8.900706743683388 9.709118326862233
Pt 8.859873621852683 8.125492766655736 13.862760314898322
Pt 7.736701264680507 7.3388680423023125 11.579853794997277
Pt 7.893149339434894 12.45503519218422 12.549217721210326
Pt 9.38042301707893 10.710656917816232 13.935418101157007
Pt 7.218954008744399 11.359167725333322 10.126588657732487
Pt 10.483061689081012 13.045668638335238 13.37879333334211
Pt 9.741788958909824 9.760719989031628 11.48026033612894
Pt 10.398376662825877 7.237524592505653 11.857224407250268
Pt 11.3887681328991 8.903282581557741 13.754485606790237
Pt 9.171986183809706 7.958587729135999 9.472408648794184
Pt 9.75502443484984 12.369957819259692 10.701201558122941
Pt 8.66888188419394 12.805115324620393 8.252106401387493
Pt 12.940550889859141 7.886905580956922 11.83981541850767
Pt 11.714118624647202 7.4167932464678605 9.523461931749065
Pt 8.416265717240382 10.197685477824704 7.949268479338033
Pt 7.368945800159645 13.922027397678722 10.298873111737697
Pt 13.112296802090906 9.56652663675849 9.854588422131533
Pt 13.6881114526947 10.034115847500582 13.203655417600324
Pt 10.61165583389818 8.693218682612805 7.380038660990512
Pt 9.636086586448437 14.997986150304865 9.473729686535146
Pt 11.931654739510059 11.346548244440909 14.632859413102684
Pt 9.11842836966329 14.818521950879672 12.083532059518285
Pt 13.184407572663584 8.679894413222133 7.391913225665896
Pt 10.501953804910272 11.475867697530418 6.804338371159988
Pt 15.282517940025896 9.12681293755486 11.361190554525384
Pt 10.736704764747193 10.425230043592704 9.212382254402096
Pt 11.909941789788542 11.137392853512605 11.67326567560567
Pt 13.0172463103737 11.296867402186155 7.837084846067401
Pt 11.401978038064982 13.178692513271983 8.663546007523223
Pt 15.197340830767413 11.759046475580643 11.970398279915605
Pt 15.19697801261784 11.02959757482385 9.399054687298566
Pt 11.587389109089663 14.303251672433086 11.143742154958488
Pt 13.504079598683637 12.781577629556244 10.238147679511835
Pt 13.137603085746193 13.121475378664336 12.936228173087667
