38
Energy = -189.24230909 eV
Pt 14.609867017931865 10.789598605084425 9.379203851083508
Pt 14.55501934444028 9.004882452047799 11.355110759811122
Pt 13.346783796929667 12.18686182026234 7.375414518216467
Pt 13.774865498542894 8.250362945302285 8.949640329444355
Pt 14.2274411154572 11.925112047090254 11.849892747848605
Pt 13.838719754349713 13.42087316768464 9.681695742577425
Pt 12.233819588504012 9.824850725742158 7.686889986143691
Pt 14.322446347075992 10.14902120972098 13.787475599652401
Pt 12.417546812459276 7.42191231525009 11.030943232478425
Pt 13.31350958339457 7.710851455244872 13.513464628983733
Pt 12.254826882519644 10.033206902471688 12.053115577892406
Pt 11.208471148434334 13.486916287500494 8.176560834750147
Pt 12.169292802070443 11.431376148423261 9.837243264446933
Pt 10.812136551456897 11.619376229427745 6.477212967676051
Pt 10.366387627979915 9.661238362429227 10.36237988188955
Pt 12.65521956865223 12.214382214480374 14.023874591448134
Pt 11.851405546257665 9.539787083138958 14.742812329436935
Pt 11.887084352136162 15.253891475922762 9.859433111926775
Pt 11.113041716179062 7.653231441021458 8.746800143465792
Pt 9.755177068036376 12.134837772475992 10.25420196636403
Pt 10.696714390845614 7.934684959718777 13.00982955467098
Pt 12.20669667326678 13.637544599634317 11.865849575651357
Pt 10.476087932530522 11.612856509206408 15.467940902199379
Pt 10.459999290316933 13.91670896971237 14.079525361485272
Pt 9.559912437745103 9.752813389751369 7.7861808036649505
Pt 9.26134727421419 14.593303301904909 9.675754932502658
Pt 10.394472343481235 11.674780769256834 12.664003525709228
Pt 10.378389845069723 15.499445543575922 12.00384522431867
Pt 8.679300307092017 12.319530550264885 7.964939881117396
Pt 9.963098080709692 6.519929518475725 10.91437232432491
Pt 8.456459615923299 7.860834596481099 9.188860012073821
Pt 8.440384973199043 8.579220303016582 11.754743803867543
Pt 8.443803928988634 13.743132884334516 12.176953395468667
Pt 9.101449615845272 9.847044940448095 13.993507769655086
Pt 7.56056956363359 10.289596416521258 9.571650701067103
Pt 8.19581237104685 12.402373030460561 14.418501884072382
Pt 7.131331076152425 12.83426865202916 10.082082595497738
Pt 7.718783434337593 11.107035681691821 12.075766964323389
