32
Energy = -154.0824464 eV
Pt 9.788745737636777 8.742806923669779 12.867522489252714
Pt 11.16425626907304 11.163937190471037 7.975474175043383
Pt 11.16415215778198 9.813654042948631 10.523282845534144
Pt 9.755389308124428 7.6753925899646305 10.398320388382169
Pt 6.853244148312294 11.164151568844336 9.819854222035774
Pt 8.92464207044059 12.505510467539533 8.801205511842383
Pt 6.805121629622969 11.164246664935373 12.65894757728192
Pt 9.023639316810575 11.163951995850594 11.311543827459577
Pt 11.1639905592373 13.80997890638972 8.20297431486661
Pt 7.664224717851783 13.362315471369802 11.2505937723293
Pt 7.664372475526516 8.965916483430417 11.250584769141888
Pt 9.75564919388003 14.653162657411622 10.398304830291526
Pt 9.78882541455875 13.585392742665512 12.867479228158752
Pt 8.892658730447822 11.163883978164623 14.160724123624508
Pt 8.924683819987452 9.822626020586329 8.801207061800953
Pt 13.305090400442223 11.163959300958355 11.311727460821412
Pt 14.663421832138246 8.96617941726528 11.25075299918925
Pt 15.47437333984219 11.16408957101244 9.820278661689953
Pt 12.57293765195159 7.675886902816034 10.39829715124023
Pt 14.663733234125836 13.362011199803918 11.250733802379779
Pt 13.403258338278718 12.505347948291227 8.801332757931696
Pt 11.163935268387403 8.518242950605291 8.203075496177075
Pt 13.40318766246791 9.822689815190573 8.801292283500084
Pt 11.164130831284778 12.5137941130419 10.523418711599271
Pt 12.572791143451335 14.65259567204269 10.398271707072514
Pt 11.164667580254608 11.163597284506757 12.763443122537057
Pt 11.163942923374412 12.536151785158609 14.942517254620334
Pt 12.539306215990125 13.585068042684757 12.867314419570363
Pt 15.522612186707633 11.164174059221928 12.658920862039627
Pt 12.539261731987565 8.74302910038299 12.867392814995958
Pt 11.163909291116452 9.792033839874593 14.94235020856393
Pt 13.435428904827937 11.16380524994037 14.160445106063623
