30
Energy = -145.14173877 eV
Pt 12.74392437277823 13.407888590446705 7.550114861289913
Pt 10.31740505506054 12.327323112166889 7.613593881543459
Pt 12.406948805992853 10.930080853354328 8.195672150772134
Pt 12.308998142614682 8.530314181297001 9.200347931051361
Pt 10.023540714497699 9.880706914331252 8.517854844335723
Pt 8.068177726904256 11.704532004456347 8.789788005152712
Pt 13.692304164251087 12.641414582630725 10.067097854119407
Pt 9.866264314770934 7.581675669113602 9.69656717882522
Pt 7.810119810209038 9.165892437830289 9.867701855837852
Pt 15.728257321717265 11.57644600006171 11.209668790101862
Pt 14.460392054479493 10.060078101355996 9.534109991481987
Pt 6.1339538655173484 11.031094832653427 10.47211664031286
Pt 12.16065864095258 14.585510654301014 9.709679407367936
Pt 12.15612229434764 10.507229955987109 10.983011204697917
Pt 9.736473548676667 11.15173009759713 10.867356285842224
Pt 11.485438518905204 7.9594302539079225 11.718376624678907
Pt 11.597862428962097 10.562551283706789 13.68583638502662
Pt 7.686981453840088 10.50499340709968 12.484579953766888
Pt 9.869424276230596 13.579906039264822 9.75209416444744
Pt 7.712657542554597 12.97336139261529 11.321919342397718
Pt 14.089991242640744 8.256770890158423 11.329099472170004
Pt 8.928802125604394 8.270722777558166 12.027921578340074
Pt 12.515705176394556 12.717731731493199 12.449997774287587
Pt 12.060104919258947 15.19849746198168 12.126612447132192
Pt 14.104730518787369 10.513174260652924 12.797023200644311
Pt 10.401380524673485 8.226563153368758 14.149453948530017
Pt 9.57349283928984 14.64853426163712 12.014106010909762
Pt 9.852600816859548 12.407765815762042 13.130609159233849
Pt 9.076528353144813 10.390854725204827 14.583461852630396
Pt 13.0466721660296 8.32313829394998 13.770140939017448
