32
Energy = -157.47827676 eV
Pt 12.14864150209723 13.008142910760862 12.82631532311505
Pt 13.8184009168707 11.69381978509256 14.454096007887436
Pt 10.601754132363354 13.931797629281828 10.92288927581346
Pt 11.233560273331701 11.005178251758194 14.354115069399642
Pt 9.608188018755783 12.412994353688052 12.759641867409544
Pt 8.899954622471688 9.940786765457554 13.569231591334699
Pt 13.244573290970179 13.907158993428562 10.486828909703036
Pt 13.190720362365617 9.207242116788438 14.871665626074034
Pt 7.148057584891886 11.490492453422554 12.433220180345693
Pt 6.35964360237532 11.203352112625916 9.894329998726413
Pt 8.20427434163689 12.967268393441985 10.519310498371743
Pt 9.537407941894264 13.979913412444445 8.456635320917375
Pt 10.702691202565346 8.39435539137461 14.60344610138489
Pt 14.697058936302383 12.600178019003085 12.116801101691811
Pt 11.73633507099091 15.27220460676575 8.91756152672584
Pt 11.569169473906117 10.648712257847713 11.786432354231044
Pt 8.143719693784991 9.552187890265342 11.009752948861772
Pt 10.057108863969406 11.196898935743688 9.842317378910815
Pt 13.995290466689857 10.00612691597758 12.426151791347925
Pt 12.628395018833094 7.744097212191336 12.774812951308597
Pt 13.633746360032852 11.234517440968338 10.079182345387522
Pt 10.167351835158692 8.28527002179899 12.016179620900036
Pt 11.992991857708779 12.685344446828449 8.503725527267791
Pt 7.460832097897127 12.552278840999964 7.922665278452061
Pt 12.012599808926637 10.120399114630029 8.384930238540049
Pt 8.121921372942547 9.997057234216614 8.358407355681315
Pt 13.104410468892121 8.690861430496863 10.314145233630002
Pt 9.75349822393226 8.230445923193212 9.45833156721679
Pt 9.921644878805175 11.693599620315522 7.196980601048211
Pt 11.604435019300974 6.6331649325880315 10.626174731951405
Pt 11.932278890532993 7.519466574606776 8.121034861066237
Pt 10.108665058003833 9.055978318377635 6.947753007124553
