37
Energy = -183.488204 eV
Pt 11.627187582303767 8.472649801408775 8.689979069203485
Pt 12.07295790258212 6.414298627283099 10.288938799072218
Pt 11.199549347341057 10.558368494497309 7.190468892328981
Pt 13.575538441278354 8.558581575562961 10.689444371112957
Pt 10.616221122477022 12.775755003815984 5.8430481549529505
Pt 8.642230560176467 11.438324736655506 6.927316783624517
Pt 13.220737970365594 10.610201926393959 8.942274179063393
Pt 12.50370606208284 12.87374494572611 7.635898490779296
Pt 9.769675112263977 13.51005252399784 8.20729527133692
Pt 11.93019217362244 7.539134017316068 12.735845045070207
Pt 14.925327583451256 10.727741473044555 11.035129338170364
Pt 14.278638771516668 13.03801921513079 9.423219733526027
Pt 10.62704895038971 11.46586519020248 9.62864417223216
Pt 9.118378329592122 9.440086660839972 8.590051215772604
Pt 16.08413376091327 13.042701799533107 11.328738195252264
Pt 12.530707055818247 11.728769017893427 11.584733316710297
Pt 13.70457399021886 14.086864446271472 11.751198925948213
Pt 9.603311413763153 7.5243319299428935 10.271303532485382
Pt 11.13964640226947 9.50259783719129 11.186598638715356
Pt 7.9912872008023115 11.801895284494545 9.474340789759124
Pt 14.680276815738821 12.079642474347509 13.377218492813968
Pt 10.258530398957442 5.662734203387734 12.024272671800125
Pt 9.219560975840805 13.923229764368175 10.73869422729419
Pt 13.401565278576669 9.671686410335354 13.160732516468501
Pt 11.762689909636803 14.02159110370998 9.915677176149622
Pt 8.249572718376093 9.678414907869614 11.105768966204394
Pt 13.132324268619765 14.181421340951609 14.257704646295583
Pt 10.00460006956155 11.773746120145429 12.186616752696134
Pt 9.108384062664504 7.866344446258236 12.889339350490541
Pt 12.242180115036208 11.763247915597868 14.364616855069508
Pt 10.823727478330152 9.644502487653071 13.948762133594146
Pt 7.412834884275674 12.096118126542176 11.96962240877252
Pt 8.683473432704947 14.071498445904036 13.388257152037244
Pt 8.11651771003281 10.031789480413757 13.74244742109897
Pt 11.165229140164437 14.24283952568209 12.50893417689059
Pt 9.709045648899833 12.002677948515473 14.760159314238747
Pt 7.0965663562253685 12.321877315553262 14.553407757087331
