37
Energy = -182.34256831 eV
Pt 10.262266860028998 6.4660570199284875 8.846488967333094
Pt 12.548256143569759 7.491415142378161 9.76845954293599
Pt 10.608992532622274 6.763322862689489 11.50912153795547
Pt 13.136055763008626 7.238927520565281 12.310260835286348
Pt 14.20086799425379 9.179133338406833 10.943016556181295
Pt 11.743002695388682 8.041295383147068 7.363541832145207
Pt 8.414333844490805 7.738584869617594 10.221811160695049
Pt 13.230414033092384 9.836192253626386 8.587094947682958
Pt 9.193980941852363 8.672982570746662 7.6294330552796055
Pt 11.230664558171792 7.833235622078893 14.007017664069126
Pt 10.430791124043791 9.329354653927512 9.804030793325314
Pt 15.21032164731561 10.165399226738659 13.062895995864318
Pt 11.766471356064796 9.595707299049725 11.97314028004506
Pt 11.15325514627023 10.561756764024077 7.0720583780745425
Pt 12.903617872376444 12.410641934653484 8.054555259107465
Pt 9.035015762606335 8.397207925660947 12.705840985139972
Pt 12.94444092978141 9.927877306740374 14.218953828235602
Pt 14.483286178323851 11.648037728834908 10.040707803007567
Pt 11.749968339332215 11.519832672440794 10.199456679257166
Pt 7.123185116210923 9.707693308704464 11.442202333592103
Pt 10.58970432693631 13.112254351873782 7.040123884671223
Pt 13.483059512880434 11.979871201991887 12.489373070624541
Pt 7.0463532494231025 9.578270246158965 8.848503670508403
Pt 8.598146845887262 11.214670280767841 7.567245672647211
Pt 9.408001307121213 11.04477923090925 11.522639384216227
Pt 9.659865926440094 12.688251987660301 9.33533887316471
Pt 10.406130249143557 10.3987787280122 14.16316186593231
Pt 12.940884253648923 13.808946325241783 10.667017616525829
Pt 7.716580849897137 10.147182791253824 14.021068467219223
Pt 12.138790334308919 14.876864403909265 8.313520763810335
Pt 7.1301296240666465 11.995607571234919 9.914782429997285
Pt 6.676336878022797 12.098348501778823 12.532111461501367
Pt 11.091792473476609 13.016442359491744 12.489179371572224
Pt 7.85569462908072 14.526469749885328 9.401332648967214
Pt 8.899477522638398 12.471581142095564 13.918210796152254
Pt 10.48989229103395 14.829538852056833 10.351715544359132
Pt 8.558721723366206 13.796818393652108 11.767015751655952
