34
Energy = -167.45370213 eV
Pt 13.170851898615203 11.583835280425468 6.1118119478882775
Pt 11.000327369762466 10.224677640702748 6.849460411796748
Pt 11.067405749385367 12.92953826158612 6.701680789073491
Pt 10.461652735521092 13.870103818701438 9.089958581181925
Pt 8.892322034712892 11.957772076981984 7.841096302302451
Pt 13.433634507789645 9.983265937910824 8.168480472747603
Pt 8.29809996163731 12.84984394914491 10.292365192503866
Pt 8.907066164564613 9.193974493711728 7.956955430218361
Pt 13.046713502650654 12.723356418486567 8.503703511700602
Pt 12.566952205402485 13.612357020382928 10.870361816717569
Pt 11.060204795079544 11.214572334491962 9.253609516927472
Pt 6.944330777480144 10.758793351683 9.183271500032374
Pt 10.01640259171281 14.504704128581842 11.62700086759058
Pt 11.318734241269409 8.402530169992074 8.846131937838194
Pt 9.080083180003077 10.096479246556676 10.468009010575372
Pt 6.798445248505608 8.152509983034628 9.252025219786574
Pt 13.582688248364667 11.133371843850949 10.61793482963091
Pt 6.643280345049926 11.363322867335246 11.755553347584087
Pt 9.195995033431823 7.462969596141748 10.214290653151279
Pt 10.626958658684874 11.990793956019765 11.673471107347524
Pt 13.697457137438622 8.459280493428611 10.156316361524336
Pt 8.122937866956658 13.17581548667046 12.930441264169717
Pt 11.370421184847716 9.528060308567115 11.492146305837757
Pt 11.970244115869779 14.42820247980939 13.344695717145747
Pt 7.271407490860892 8.776739404435936 11.748505718535606
Pt 11.55031904637725 6.959478711112463 11.124884509964232
Pt 12.880601426599974 11.911662227095883 13.09412962347091
Pt 8.696517252766075 10.594011098407666 13.252493958460212
Pt 9.553191661355939 8.08860823488698 12.91135518825894
Pt 13.640929129781846 9.471187406154904 12.754923039857678
Pt 10.37576022658488 12.543320398612765 14.18006088581844
Pt 13.970146905457447 6.882205746708181 12.218834561455262
Pt 11.146665444531362 10.00755985804707 14.143301755861208
Pt 12.00333386871723 7.547314268830038 13.724763793021358
