36
Energy = -170.69489449 eV
Pt 15.643605468219542 11.967189032475694 9.442350429130952
Pt 11.216179578211342 12.177820477347169 13.88346018296656
Pt 11.394430471542021 10.496028134726542 15.853337228826481
Pt 9.405985931798813 15.096411974344507 10.034119333218424
Pt 15.603397632615918 11.402208741878374 11.931410290132401
Pt 14.137941510363225 14.124312437646765 13.793765627957328
Pt 8.380352053998525 12.63855234834597 10.527726625276705
Pt 13.232217427762283 12.505434828693652 11.985071417904711
Pt 9.711199059338874 8.955239056427688 11.168130142327351
Pt 11.93064910100584 9.037095634727105 9.867338265226518
Pt 6.298240375035016 12.48495097056406 9.156746551256388
Pt 10.528226997907357 13.514113156663797 11.745080514058813
Pt 12.829817307835587 9.142642639982471 14.110477107376258
Pt 13.660441410786234 11.501800032894518 15.066577492671135
Pt 15.972776153859414 12.439985617015346 14.301358921108386
Pt 12.702219390283565 15.115598339290088 11.801030026616854
Pt 11.884669342090096 18.28923118271206 14.674885731522583
Pt 15.648758859601571 14.090204099167469 8.11944372100591
Pt 11.368334373714031 16.523800946450883 10.122770325427327
Pt 10.51268577710062 11.262420719643794 10.07512168192858
Pt 13.961387093394082 13.871844118163974 9.931273986266177
Pt 17.66818232890453 10.745804087338517 13.333002080823892
Pt 10.055659614328176 9.34341769487117 14.003093473766898
Pt 12.434658298263821 15.886998931269163 14.447998286930249
Pt 12.350846509972332 13.679695289692718 15.637593074035067
Pt 7.798067112339402 9.165104967368473 12.80788393928067
Pt 15.343204541899837 9.782826162869991 13.899064821345368
Pt 11.844766736886333 10.315106187616891 12.112017879206086
Pt 6.962594025303689 14.703501565608466 9.967493885958257
Pt 14.300629031077746 8.191334656192055 12.19873705339707
Pt 13.774272294032128 7.322942695201222 9.865658463623248
Pt 11.418469212515836 17.318060801303613 12.469280083493286
Pt 11.10434433856847 12.438193617150386 17.36777492388345
Pt 12.996705719002952 11.48617030864245 9.567404574701746
Pt 9.11108674150564 11.35461218544635 12.56949294590646
Pt 14.827968961201986 9.644317142533717 10.176999693709439
