36
Energy = -178.4943685 eV
Pt 8.618247543099372 6.122415505323782 12.38020436084891
Pt 8.04034066159017 8.527612109028174 11.492333548956102
Pt 8.294230275756005 8.143053013849027 14.0429473565133
Pt 10.045410932362831 7.067206684763801 10.414691159960936
Pt 10.767299940560447 7.475842750799874 13.072516654486758
Pt 9.006150011547698 9.194390043759434 9.122375193032678
Pt 7.924828325400896 11.02425824631635 10.70124832262329
Pt 7.811886923666998 10.64368081610607 13.356698946655337
Pt 11.462148601370844 8.064831364851235 8.555514331160916
Pt 10.233300334768337 9.971495254868156 11.514724084666634
Pt 10.244051138995907 9.883224703378962 14.13823424101374
Pt 12.303053174504933 8.356713332042062 11.100488716625096
Pt 10.517051797975151 10.097429228702016 7.00755614938587
Pt 12.932498623819313 9.1805880599567 6.677590557902949
Pt 8.890679901715911 11.700050709813128 8.353788511213281
Pt 7.604159764516839 13.069789585309087 12.417796309929663
Pt 12.734642039512513 9.09790858682348 13.614029550444098
Pt 8.104055255855627 13.599306532734875 9.987964485768916
Pt 13.521166999136748 9.755236373320532 9.159930088128842
Pt 11.240304091603242 10.992201149336857 9.321597077949951
Pt 9.380380143558341 14.547742481963478 8.03479842898463
Pt 14.642373860890725 10.862564903038619 14.109074516312766
Pt 12.917695297555765 11.755268295591492 7.353745403554786
Pt 12.150169044221077 11.604459692113437 14.364677371765055
Pt 9.80972130775443 12.451823333029333 13.607988074439993
Pt 10.601900083662024 12.726464241898865 6.6374638465859315
Pt 13.96189162380221 10.394589323695433 11.596378841242355
Pt 11.853823484106313 11.93830002807712 11.673096108150107
Pt 10.196408907740773 13.973240108298098 11.362894129389604
Pt 13.892131771099367 12.374198701971041 9.736708572979731
Pt 11.63409240174487 13.652765810514405 8.928862997828324
Pt 14.070659158385284 13.375244832694877 14.758737439233395
Pt 11.761657811146055 14.148037487556318 13.519857873895829
Pt 14.50489895549088 12.879151593592454 12.27644160509728
Pt 12.826675040795164 14.506347145522374 11.017740898803421
Pt 14.032049884549124 15.395631723474095 13.139026128811603
