37
Energy = -183.79927166 eV
Pt 14.438842182262125 8.678373437908801 8.854441826865303
Pt 12.159830218580927 7.319654246794449 9.208173149979825
Pt 13.234901371761062 8.920496472960647 11.200141922552154
Pt 15.12484123538727 10.700939563807198 10.483216299801374
Pt 12.316834708892882 9.28307968237288 7.452108719203901
Pt 10.873270090785889 7.606708018299417 11.49225961643659
Pt 11.806063942693608 9.246182848703096 13.364605397337867
Pt 14.021869917309779 11.156706449568699 7.9894385330367825
Pt 9.465196913657048 7.63814230446966 9.059738214623708
Pt 10.973465510869326 9.690253538510662 9.664291786959241
Pt 15.670298226277694 12.87613943990513 8.998305495204654
Pt 14.45628791491434 13.26328614034876 11.238393371412544
Pt 13.858932036466117 10.942436671290217 12.809811239808425
Pt 9.35538653512825 8.154884586456156 13.605019029886476
Pt 9.73697254721437 9.737603521755364 7.296546284041175
Pt 8.059913097532569 8.017676933421418 11.18397281095485
Pt 12.639985836301404 11.537653072369032 10.299205511093776
Pt 10.303741783851493 9.848669693161579 15.460701447241416
Pt 6.710519169010998 8.5623095165266 13.308725866122767
Pt 13.101130244509365 13.573990465634523 13.406136536092546
Pt 11.275406656511148 11.910241738705325 12.543435981668688
Pt 11.44517494014543 11.804448062193556 7.484693714840196
Pt 13.172083075310926 13.628875107050806 8.65695387369548
Pt 8.121663967182338 10.572236943395168 14.125486760951663
Pt 8.035159665197545 10.01732835834565 9.34473851969818
Pt 6.9075161185114125 10.643942659884043 11.714891771392347
Pt 10.075142617354274 12.093525779173977 10.215798565472275
Pt 12.395161429316959 11.443430329432447 14.945400737544379
Pt 9.565663263716585 10.117204306246872 11.869180979421682
Pt 10.472488617904668 14.372863658542803 13.196037054554019
Pt 9.917417464359076 12.331788317039907 14.747660602858428
Pt 11.978413446816498 14.338445983539609 10.976460548024408
Pt 10.633843237807065 14.128442856944877 8.586726645116423
Pt 8.859242762420209 12.172739172260453 7.905897179457834
Pt 7.457785195180553 12.596097311970857 10.106822605500927
Pt 8.355577767309178 12.818205728910362 12.63609133079419
Pt 9.277291769745093 14.508312560294478 10.821805548548655
