39
Energy = -194.01327891 eV
Pt 10.741663666925497 10.870625957468151 7.265200823529143
Pt 8.557689274086608 14.357202983835096 9.40789867856571
Pt 12.818800533849748 10.056362700092118 5.877220743730185
Pt 8.856971516733635 11.697954549075417 8.865675780516087
Pt 8.970457674518563 13.835206336588834 11.975257958202445
Pt 12.443175079078422 12.643399134628009 6.442812759459326
Pt 5.569751734685224 10.873441634126232 11.674691504781538
Pt 7.68079888115141 9.900720078784678 10.440218799968184
Pt 9.907234982460855 9.294450679282916 9.235686101875908
Pt 10.492892470441536 13.603859204670034 7.908336453612655
Pt 12.266689347254417 8.769286788127893 8.120744608151034
Pt 11.00491582580038 14.467710697410487 10.35239888994734
Pt 7.049813797308963 12.649135840984831 10.563489752035712
Pt 11.642931532109891 11.40431038890798 9.677644620688628
Pt 13.815264990749192 11.08443673650289 8.100754123512067
Pt 9.714224065539513 11.269355942770163 11.443001748914382
Pt 7.63645701277182 11.747454640139111 13.102674034563476
Pt 7.185711576333621 9.109959719274679 12.87709537939426
Pt 13.072018645408823 13.59096445821863 8.825964599630682
Pt 13.459346215292264 14.448111797155228 11.239139963775246
Pt 13.86676821160885 9.392898048824451 10.093332897355777
Pt 11.73265894670287 7.7910967270059155 10.450595663152809
Pt 11.717824034614603 9.630576491470546 12.511066994049822
Pt 9.376540687005573 9.941589660236243 14.018918238654443
Pt 11.235926845792331 14.699494265392465 12.965690203468979
Pt 10.031263108413821 12.510517746333598 13.99983570282105
Pt 14.225379965689777 11.936692580969018 10.592786438183332
Pt 9.451886115197022 8.299864179570056 11.75509278839367
Pt 13.888979348534404 7.586962211892025 12.020816793109892
Pt 12.045858316273947 12.18686231624454 12.202038729912589
Pt 11.50095343206969 7.046416413043248 12.963694503279756
Pt 13.725787961185587 15.091336128916058 13.80525983631038
Pt 11.663765016802527 10.580376027866485 14.980405506632106
Pt 14.404265906061676 10.145788233508883 12.53836492555606
Pt 12.421634834918361 13.085229266370266 14.847625991385565
Pt 13.315324949309442 8.592420067753165 14.452383920929812
Pt 14.60360443790646 12.719448886420995 13.038156380812085
Pt 14.275564633824796 10.925934429992639 15.082303036681884
Pt 14.897599173741787 13.41474738407858 15.564909511265425
