30
Energy = -144.62027034 eV
Pt 13.50952107979668 14.151694146666078 12.560871495375466
Pt 14.636265716833723 11.942872226855261 13.203918002264047
Pt 11.013456486652998 14.5394059427221 13.043596201984261
Pt 11.9928105724325 12.034254793440352 13.213151860740913
Pt 15.616121361482282 9.964635481405665 11.928751540160434
Pt 13.19651343593889 9.664014199170413 13.057591899241137
Pt 13.93602122012261 11.783824662387334 10.710989380013345
Pt 8.504744467230058 14.688579226659172 13.414398605406353
Pt 11.871345564405368 13.34586848009231 10.756813238509473
Pt 9.479937563251031 12.210578585049547 13.644465300866324
Pt 13.56839625342421 9.236170342254024 10.556805366735139
Pt 10.623871715804366 9.88339942776954 13.322496531371977
Pt 9.50169420789044 14.572350077702874 10.915731394692576
Pt 12.541452288013977 12.104964012921924 8.633579690689295
Pt 13.067095942938495 7.274319407522514 12.193316103621637
Pt 9.978437067800431 7.447599249620482 13.848593657682075
Pt 7.855580376338209 12.79798085265083 11.739199424603067
Pt 10.76091237097913 7.850876796152492 11.453453864690168
Pt 10.129157027159046 12.950500619716628 8.879439767895724
Pt 8.15201631029486 10.387417633174925 12.417357139101947
Pt 11.589371549214201 8.548149915256955 9.091898677809212
Pt 11.165853030797974 12.165278911031379 6.421707957694894
Pt 13.998350472407475 8.413064550019453 8.208646855174658
Pt 12.57486742911073 10.115337866383639 7.041458212337613
Pt 7.676155508581584 13.682918292059004 9.273451996585413
Pt 8.331980673289957 11.185498079890733 9.668991897420034
Pt 8.2151782855582 7.914091807716954 12.086299555842897
Pt 10.062040943591365 10.377976709689069 7.89312028732545
Pt 9.125971337400996 8.778921009728709 9.656362471458696
Pt 6.688260583388095 9.350837536419222 10.526922464835527
