32
Energy = -152.0784116 eV
Pt 17.468361603919877 11.11716962334043 12.320735937225402
Pt 16.366731065173347 13.078088369051272 11.244300880717866
Pt 15.058123318903972 10.672447198479977 12.224216117219571
Pt 15.122995939745396 15.192258966345333 10.629836721529722
Pt 13.514138805451642 8.923381529879817 13.216279868495036
Pt 13.972643450130773 13.473484268848367 12.18662244527416
Pt 14.433396698430926 11.885799175916414 9.969898196140077
Pt 11.779981050766544 7.033863300857879 13.793990396776302
Pt 13.375419768567866 14.064847086811417 9.226602302173927
Pt 12.650416668746672 11.419883678814287 13.175615834951996
Pt 13.046735782694478 9.83807438968542 10.66745651431659
Pt 12.024149636890693 7.655502172799716 11.316478485344037
Pt 11.976554014844885 13.995508334795597 13.680047929797018
Pt 11.558411623530935 13.551880085466424 11.145198867819603
Pt 11.539672953182228 13.992481447537527 16.11237856385972
Pt 11.22732942418395 9.453273949536909 14.474522038773806
Pt 12.59872078701655 15.439413704959737 7.297057977025295
Pt 10.70961145125901 11.90275785752844 15.035627865376311
Pt 11.984286527565427 11.656279331361631 9.085754692386525
Pt 10.72986379422373 10.869949074930904 11.339174841921754
Pt 10.698278256875478 14.14417838560508 8.542310548816637
Pt 9.667478073843165 8.479710857261084 11.148509283342479
Pt 9.064386778845938 13.178238793026418 10.292336097505098
Pt 9.336026774036318 7.842149968132083 13.593966419580166
Pt 10.618151550715657 16.611937514583072 8.154348332928683
Pt 9.104092154687079 10.597570198177698 13.486853169387452
Pt 9.632665875477972 13.138770196053768 12.87073529047583
Pt 9.620451881684765 11.867983096225098 8.05008113086063
Pt 8.6256406380308 10.493344371362548 9.898206446166029
Pt 7.685493890662729 6.919640010766223 11.850443532938959
Pt 7.34700749461437 9.444326095402213 11.936775722706987
Pt 7.422781823252179 12.025806524411912 11.99363710612153
