30
Energy = -144.86495111 eV
Pt 12.328081036296412 12.638131442651543 8.406714794181939
Pt 7.94919301460235 12.308087421068896 7.994723674265001
Pt 9.962081733312509 13.671873338863854 8.72073910739436
Pt 12.696982023846342 6.972908724077623 8.6585082562415
Pt 14.725964141614664 11.5684112417446 8.465131422080354
Pt 13.97555084361251 9.153834039407071 8.616666611681007
Pt 10.034050513493222 11.067005576778769 8.950295172830582
Pt 10.847931653529608 8.613283899866197 9.473501633190642
Pt 11.975668634130827 14.468370224539688 10.242601844930366
Pt 9.762943809794493 15.931633763993224 9.971141627773058
Pt 13.80456939374296 12.670376417132424 10.649595316484492
Pt 12.339846168657061 10.555500227556735 10.052165859362823
Pt 7.743833760785359 11.461226112372136 10.36649717401203
Pt 12.238405292739333 7.163186643504356 11.147082563683904
Pt 9.317266479867962 9.594086227978586 11.302804341189503
Pt 13.999633337261386 8.965007139811954 11.23420254527411
Pt 15.652759281301602 10.839908078497919 11.032216885113998
Pt 10.924284756265925 11.506773578922525 12.015835363304838
Pt 10.558700891919797 15.219291685288558 12.31065724927956
Pt 10.748661115374569 8.21369589030509 12.877873699588005
Pt 9.255362193689065 13.328096234523493 11.240731853878131
Pt 7.175465107555043 10.389077652528188 12.559206594339976
Pt 12.460735138703976 13.50988674693451 12.736011420041512
Pt 14.392078089331942 11.810954258409593 13.098112533402146
Pt 12.693650316990947 9.916059169924255 13.183275445235145
Pt 9.915209863880616 13.160722899151923 13.822824594119895
Pt 8.615567237295679 11.046498154039519 14.429749813399035
Pt 12.430749945693872 12.011779349657017 14.826624603779553
Pt 10.740929162768465 9.77224745136318 14.896867381292537
Pt 10.232606578786076 11.97084792595038 16.216402135493826
