38
Energy = -187.94725097 eV
Pt 9.107557489150787 9.487125085077295 5.492640564719507
Pt 9.158395746394318 12.032545444007942 5.184068733158175
Pt 6.582571249633732 9.282471316070604 5.055134757385604
Pt 11.257582113659826 10.96882933387511 6.3761795177263245
Pt 9.422766678056469 6.947244681162855 5.1842643683772565
Pt 7.3035143867024415 7.289884650187546 6.609784794498031
Pt 7.199186879635147 11.274357098207627 6.6988581241987095
Pt 4.989602963986357 11.526305128905221 8.11367173919368
Pt 11.193232102718358 8.329422856686339 6.508014638037704
Pt 9.236020126385164 12.76488592832445 7.687477299702348
Pt 7.532630288726002 5.173529784483144 8.102618864177462
Pt 5.696376915865255 9.151405165803364 7.495663673833308
Pt 12.61676496973494 9.597939969229058 8.23107850722392
Pt 12.36124531626872 6.915055961874478 8.378904371781374
Pt 11.75559196333424 12.205841537718698 8.716749446142945
Pt 9.9079188888389 6.162703735778967 7.577917629766906
Pt 11.1823241923247 4.895031557541311 9.49485527170914
Pt 9.884956222894255 10.36896017934233 8.469387891778043
Pt 8.134553912581726 8.581191227860582 8.763909076575553
Pt 11.657632520997687 10.211275480466465 12.007272527648853
Pt 5.79148521301387 9.870126814040585 10.001035205271833
Pt 6.073783569674493 7.113084135785115 9.071491911313263
Pt 8.876414918216662 5.762779671692241 10.22106071194397
Pt 7.243295763201008 11.993797307329348 9.272741119305683
Pt 11.888154706614268 12.714185729932415 11.364677997215157
Pt 12.93149322640727 8.31984552683249 10.668668396952274
Pt 8.77161955073669 7.496790349492955 12.19552843024816
Pt 9.522843270574343 12.51168588195178 10.265442279065345
Pt 13.4909580450897 10.897207708192532 10.33392447749841
Pt 8.96819123780682 9.91119984789162 10.877624137652587
Pt 10.528482206642723 8.214798476304471 9.71183934735929
Pt 6.47580746529122 8.774380180356935 12.155616767046505
Pt 11.187573653203419 6.460167272545247 11.554663974953089
Pt 9.792507352922508 11.890239831564836 12.77439648597686
Pt 6.620030139718351 6.296196821911344 11.410779378057965
Pt 7.064392070625981 11.361342167585379 11.891305951634772
Pt 8.550853471902826 9.768899819325396 13.548547370619344
Pt 10.876837910365396 8.312415034557839 13.367352960146222
