31
Energy = -147.05743078 eV
Pt 10.886620042001553 13.390554421975493 8.18878737378441
Pt 14.473272857500147 12.793138730134633 8.134052730686472
Pt 14.666920583008555 9.8678618552215 12.105931036514045
Pt 9.752163133147555 12.394978710794623 14.069789020136039
Pt 12.313989920315052 11.088943574346274 9.873450040499357
Pt 6.713543712081515 13.154431479210059 10.249139833455633
Pt 9.920253035223386 12.135561843882126 10.211922773041284
Pt 11.410577854607926 11.343980785096663 12.497213621082913
Pt 7.240753022648434 12.97321188480827 14.311958304226529
Pt 14.249553277788863 7.509340958542908 12.983411154075617
Pt 11.206527053297906 10.043423340624791 7.786004675915123
Pt 12.30949209373816 8.960580337090956 12.429604898446733
Pt 11.240135843303655 8.704198508822623 10.078759709248828
Pt 10.798509038401438 6.939874250713664 12.025123011696975
Pt 8.699673611865766 7.1032707013492145 10.642563520807284
Pt 7.197773241367106 8.570401213760423 12.02222050718229
Pt 7.514256132922494 10.804973341615378 10.837002738373846
Pt 11.12991485250925 13.819976983761718 11.873199143752837
Pt 13.704006841307542 12.259247976522317 11.865635356370438
Pt 8.684088756832201 10.559733955157775 8.564008271346967
Pt 9.661893334346482 9.387490648932209 12.148841606668931
Pt 9.509613019252738 8.17697694567951 8.245790566852751
Pt 8.493928697662108 5.927873338485529 8.494073459812547
Pt 8.285566270536146 13.092751592550348 8.310497059954772
Pt 9.77522747245245 11.85395696637009 6.435534833627294
Pt 12.464936775730463 12.073609911582487 6.780271968000748
Pt 14.867298069607497 10.941047264319991 9.811776401743561
Pt 7.8221307597976235 10.63721844315304 13.443497123802988
Pt 12.739907307956555 5.574990499600453 12.655406407067892
Pt 8.476347403711886 13.249972900120166 12.075787646081348
Pt 12.791773611476438 13.667074262173966 9.849392832142458
