37
Energy = -182.16240221 eV
Pt 11.956569152800586 13.035048991894302 8.511878584215582
Pt 12.947029374670455 15.029718244969255 9.943456965894336
Pt 14.572186738679692 12.972327490098529 9.610994018533223
Pt 12.389245877558 12.406127698313615 11.059798586543591
Pt 14.882236432228249 11.629777656095843 12.06407722840527
Pt 10.36959342276582 14.705605344172518 9.845368634768553
Pt 13.207950243692016 10.05874761211097 10.207845591842197
Pt 9.290631568297513 15.033933181701173 12.276746105653979
Pt 14.437348528869352 14.241220504075049 12.012411427019249
Pt 10.278679722261591 13.044668656736935 13.718074172007224
Pt 12.99048273609556 12.633980514730162 13.676440926547988
Pt 11.867523565002942 14.710864140941245 12.379108940265173
Pt 13.618366945732854 11.075404531951774 7.918610057998316
Pt 15.729252123429655 10.626648068216921 9.733182764429413
Pt 13.650262739123216 10.0579789993592 13.870686293360373
Pt 15.008184163449412 9.008662531660711 11.827181227266053
Pt 11.637957668183901 10.174915868054105 12.313852825655621
Pt 7.798702504601847 14.23708902868863 10.213080642357264
Pt 11.65017743070521 8.3125904183783 8.418066807649819
Pt 10.592417557684685 10.170095464125035 9.922166245221268
Pt 13.483793554982041 7.473048101254341 10.193436071215451
Pt 11.014874801225535 10.818602196959338 7.469062933942317
Pt 9.246230096769418 12.625987288803262 8.555450430909138
Pt 7.227828922216399 9.006522170827068 10.417032925895636
Pt 8.578107003411208 10.05259522963867 8.36651969962586
Pt 9.846748575240849 12.405211797956925 11.172461805694999
Pt 8.618385425712 11.083047341302532 14.319789158058567
Pt 9.02425360043655 10.060468232458716 12.032630068063682
Pt 9.233896471278372 7.617607382990747 9.356676237318656
Pt 8.752663715745053 7.474093626011042 12.051388490571929
Pt 11.117690173371104 7.5695468195378215 11.121631422343054
Pt 7.352515988258943 11.627326876522266 10.172337643358778
Pt 10.589902100791434 8.317018418294893 13.822895740226377
Pt 11.218561439432843 10.829372527877599 14.766318314933374
Pt 13.003941828311593 7.618503218085758 12.885270606959185
Pt 6.50408371708655 10.634252052505925 12.507424020644537
Pt 7.667123589897109 12.97679135862104 12.622045798682192
