34
Energy = -168.24104412 eV
Pt 14.608014035161839 14.350791973361693 12.166581976011882
Pt 14.006636857771344 12.441743704790143 13.936414560557576
Pt 13.691244265341712 12.000472453199261 11.379772631316442
Pt 14.504381007459598 9.946673111882381 12.836200844232488
Pt 13.35586465372153 9.6128290500933 10.458175472794471
Pt 12.076865746110656 13.977281931775003 12.64335857922327
Pt 13.609808358830094 7.603263969378807 12.116882803213443
Pt 13.010761346666877 7.147771775864143 9.512445826327946
Pt 12.500454816638976 10.326720254491253 14.358967130169166
Pt 12.944094411869202 14.153187235373977 10.115224080451304
Pt 11.508840388248588 8.076791908231982 13.64394333375947
Pt 11.374514969555449 10.696605844847877 12.025550431502277
Pt 12.790669260915152 11.691025301860458 8.937896135149893
Pt 11.068806149163763 7.788920708275784 11.100347307799296
Pt 11.570936003728338 12.671276887218523 14.88357942014314
Pt 11.92007020907677 9.343725676742135 8.309470426528778
Pt 10.047701804654452 9.833112996219329 14.943605531582918
Pt 9.133454286433416 12.182718571129506 15.53758934760452
Pt 10.503228547300914 7.193098363721643 8.599797261756175
Pt 8.839258683184529 8.66840364127425 9.975372055316997
Pt 9.314655880755867 9.031181373933496 12.544648964595813
Pt 9.345082693161517 9.180061382435017 7.407488253484164
Pt 10.310675830416892 10.96357391353435 9.743386718333158
Pt 10.885890222853433 11.402768122618827 7.067413428541583
Pt 11.371908119440656 13.83727145487951 8.156099035851707
Pt 10.37468695109209 13.607789475484399 10.596407526039146
Pt 9.84768726216964 12.71151689470734 12.952176535120982
Pt 7.068831766581378 9.875871151298776 11.39982566467103
Pt 7.93258749812605 11.04243605562393 13.55211927109182
Pt 9.70664656713131 13.562885989809137 6.1750983651708165
Pt 7.395627657844996 10.64711047408039 8.915635269051352
Pt 8.261666352455784 11.376673355393605 6.54700719765061
Pt 8.271966906109245 12.141661986648112 10.97026092223898
Pt 8.769927958889857 13.012380755341105 8.548636968111436
