39
Energy = -193.98479815 eV
Pt 9.54416754431916 8.193519752778258 6.998203280986485
Pt 11.9081840991564 9.406626415160234 7.461938321313121
Pt 9.540648081360027 10.822122885649694 7.379716188839737
Pt 7.733404714209789 9.203370677329527 8.630034725098712
Pt 11.318870646174025 6.856313449092429 8.386449372840692
Pt 11.140401350327757 14.336549000080842 8.87290595477421
Pt 11.867338819734618 12.033627774211322 7.810172830716068
Pt 10.290275011028234 9.220893739274164 9.614609391546914
Pt 8.818956852160634 6.727516165842201 9.075798905146712
Pt 13.033511329555301 8.246941225563917 9.589722072821232
Pt 7.5705407444459585 11.87571235692728 8.922851205324017
Pt 13.016705889513384 15.744643297163478 10.318027852930065
Pt 13.573577821871574 13.282812352787744 9.44072520662355
Pt 6.450995137839303 10.16681820972656 10.698450584944256
Pt 10.481692453554231 15.851166273795734 10.945696272265302
Pt 10.659587875930256 7.0485263823553375 11.09653411513581
Pt 8.66077779166063 14.139434612967882 10.017066454410019
Pt 10.07999569325021 11.86510793414775 9.76302648019622
Pt 13.885215908117848 10.714318638860714 8.869477441997395
Pt 8.08125868375933 8.176945814570388 11.065364812586232
Pt 12.17578846107381 10.603390013553023 10.818961598055786
Pt 15.042851105791595 9.17425234632668 10.837619460135576
Pt 11.707533289862377 13.196124495030103 11.25181676718333
Pt 9.028665145140018 7.371890169030598 13.297453708304094
Pt 13.23283562687352 7.425060791880781 11.984506460797359
Pt 7.976892407780515 12.076877195255754 11.586403451859608
Pt 14.890137801061 11.713303586244708 11.28471091952451
Pt 12.414105525958888 15.126837349149026 12.819298649604983
Pt 14.710573854753704 14.257462903558478 11.672895005553608
Pt 7.585863123277916 9.816063559241183 13.071731666297755
Pt 9.973646313288 10.24159241152046 12.052515286385763
Pt 9.56907621735956 13.938148055923108 12.497184727453545
Pt 13.324922213575766 12.555563748908957 13.25518418837232
Pt 11.38010330255427 8.450150296864031 13.42821028943459
Pt 13.56339479684484 9.929542692341576 12.90962779537481
Pt 9.061815011084494 11.887008012121617 14.056108103467682
Pt 9.454034083655658 9.41455305947182 14.927338611739557
Pt 11.153633264171315 13.505005073142152 14.479875863346662
Pt 11.577825987863239 10.936714267419681 14.29568479440667
