35
Energy = -172.4169924 eV
Pt 12.948173164388628 16.650564557381113 10.186437297191215
Pt 14.285465419568078 15.047987165251426 11.759323506846954
Pt 10.794960571687097 15.495428562906831 9.261202969683783
Pt 13.052103611259346 14.09762122212187 9.550972302958188
Pt 11.65329534740477 14.882029215426892 11.73813152335651
Pt 15.453353333818592 13.312032003173396 13.295286166789596
Pt 14.808242352381306 12.644586271907787 10.80757615712747
Pt 11.052041248392268 12.980191554381001 8.371036590417559
Pt 9.209809375386666 14.436791489386868 11.068265448604562
Pt 12.86251896457826 13.514638769598339 13.539852279131456
Pt 13.100797542022631 11.608241175838165 9.066084663508992
Pt 8.696421164641745 14.243163494672245 8.427484987671527
Pt 10.305222026023438 13.306767085166877 13.248252744814467
Pt 14.924631739872877 10.133492367324832 10.285053833724291
Pt 8.844904761734238 11.740362817019976 7.628222663335607
Pt 14.543316054246704 10.88704108793647 12.726228373261668
Pt 14.138327182197326 11.761935210688057 15.079098426383823
Pt 8.164296312830814 12.26697593501213 10.09921686696764
Pt 7.792667406677731 12.852975472139391 12.567593670373762
Pt 13.852320367678495 8.50928976759775 11.979113409996316
Pt 13.342528931864443 9.310267531935153 14.537669403602534
Pt 11.667019701736065 11.379758578351192 14.373892031519754
Pt 12.689902622574493 9.015162200673595 9.639688144264019
Pt 9.092387026697326 9.203280142981576 6.938454890936331
Pt 11.061639685385858 10.391008094998652 8.162382538232038
Pt 9.243411194098204 10.991670413957642 13.754928256008558
Pt 8.331271165889637 9.762440712572683 9.33557211256898
Pt 7.758273467603728 10.327176695739908 11.754468382674224
Pt 12.530602429097955 7.004400180601531 13.666897904476764
Pt 10.788458441750429 8.939175514203923 14.039996280952378
Pt 11.382731714293904 7.737323732436428 11.443217732003175
Pt 10.352941431974756 8.049483055271992 9.08997543316952
Pt 8.793671535175786 8.004397548886281 11.187938426378807
Pt 8.224338496143321 8.584500066146502 13.655574226397286
Pt 9.851373724615213 6.563518385231787 13.19041959658934
