31
Energy = -146.52789105 eV
Pt 7.984889519359298 10.299072385306452 12.540342716457863
Pt 11.679911023859857 11.502837953752422 14.656950335541085
Pt 10.090210951799824 8.403849499599605 8.422007848014934
Pt 8.579421164607274 12.266464685713334 10.567591401951503
Pt 13.771710660144436 12.949380351203997 10.388945007893055
Pt 12.239766745790831 8.864168761006429 11.729260866998874
Pt 9.639305736167978 10.059372473182982 14.600382152716335
Pt 14.116187558279451 15.40553328544753 10.532215862865096
Pt 11.103828766285964 13.0802331028756 10.49709488998327
Pt 9.814059743535392 8.361481893400716 12.719926700296268
Pt 12.93317240261223 10.507205536024008 9.89156202347907
Pt 12.994419586500557 11.315847697492623 12.362672283386368
Pt 10.329463220843483 11.595160485411645 12.516810665340119
Pt 14.59640166179048 10.602003187376981 7.856610589728828
Pt 12.248577028079529 9.363475379769717 7.6854187708186075
Pt 13.0980214909501 12.508917001070117 16.454169264992554
Pt 10.609277148776833 7.087574755020025 10.58014511470036
Pt 14.57137551650079 13.169677448940107 8.044870143703898
Pt 8.375280038590772 10.375572925678552 8.411839048174437
Pt 15.15382386160895 15.527474696273128 8.299878168641802
Pt 12.363542241723298 11.913476250912424 7.6825269256681565
Pt 7.695681847623515 8.360691690795049 14.175206815887426
Pt 6.496623246977324 10.424347735824862 10.380543169011364
Pt 12.548413055923934 14.390071780432711 12.206894692437848
Pt 6.522993556816385 8.64132288120535 8.598257247406023
Pt 6.472841900559556 12.341538839728486 12.01316130841206
Pt 10.362471047371734 10.125669078159625 10.353755889035003
Pt 8.252156246031788 8.32683285974956 10.479912413684934
Pt 13.544205313502486 13.211848726090661 14.131211169443072
Pt 11.735636538972226 6.597120707686757 12.798922313067436
Pt 9.962190807594663 12.307635574049016 8.306773829442818
