31
Energy = -151.32390583 eV
Pt 12.427750960841589 13.4129647300144 10.738112298403747
Pt 14.219267175353961 11.891183563780997 9.596883448225926
Pt 12.808703044197612 12.46620946473074 13.57817873510088
Pt 9.927805820815923 13.487930455804651 9.98612082016646
Pt 11.642127622457922 12.1388175313258 8.536806052922037
Pt 14.580353452332579 11.082429664359042 12.120472162689131
Pt 10.54961306648867 13.514289249798113 12.663343585326373
Pt 9.010903961344898 11.76277792988072 8.085613131647753
Pt 10.806372057785127 10.183340456406366 6.96005875575575
Pt 13.471198902339347 10.527822057385867 7.4458826804878475
Pt 7.39943460667804 13.355810057593688 9.407015828479642
Pt 12.070003635522413 11.066062219028996 11.641802968555762
Pt 13.706059859076035 9.381543800909174 9.783246922361494
Pt 8.16184222503304 14.327381078581984 11.792815455039568
Pt 10.512456291564876 11.613758415018458 14.575517144097516
Pt 10.967212839048063 9.785754337422896 9.606669325108296
Pt 10.088605658182592 7.596630428283449 6.742500667361024
Pt 12.310765279875868 8.15949062042998 7.92942184892568
Pt 9.550369745730078 11.226817967608103 11.243509122855777
Pt 11.984642756393079 9.614041944085333 13.738744625966545
Pt 6.372380273815637 12.392730920694627 11.66008837820961
Pt 8.306611940210932 12.081497222289132 13.321490411312158
Pt 13.749313636749122 8.513855169507574 12.198484610657445
Pt 11.03948590706292 8.099747960776265 11.75823446459878
Pt 8.660178127418963 9.12489227039469 8.32322501085894
Pt 12.873355326723173 6.9431955907700456 10.250974443850666
Pt 7.376458741473611 10.71724144757457 9.913723766919892
Pt 10.273814142111698 7.199639973589364 9.398106791356245
Pt 9.379646699088658 9.532882448890224 13.221271548921303
Pt 8.501236256614746 8.457974431501128 10.931402240803436
Pt 6.864962933428 9.910505221733944 12.429892382682567
