45
Energy = -225.52887606 eV
Pt 14.21598341828857 15.093171028788438 12.648432537114772
Pt 15.606790435818665 10.883926378650653 13.998046080475907
Pt 15.956891144196337 13.143780252274828 12.5931493418129
Pt 13.982859424806021 12.885750584428324 14.299617382877589
Pt 11.879782830343023 15.478865951927972 11.512367267779878
Pt 14.223556187306873 13.44057747658539 10.62122275023984
Pt 15.114523854426615 10.969769414436128 11.457841608939558
Pt 14.212839474901362 11.259882619264657 9.048673166407024
Pt 12.20985833713707 14.86049400045436 14.320422518080303
Pt 13.967134706222346 9.106492845589157 12.898812205153442
Pt 13.275692056493453 10.461579933165542 15.170099143022961
Pt 10.840996548324616 14.527332732956195 9.377573081873576
Pt 11.616207369768329 10.553242074409722 13.019537923688004
Pt 14.354147035363471 8.832331263192957 10.235290097410042
Pt 12.070602948755244 13.0332055665479 12.379289951899034
Pt 11.664213321789385 12.532184538885703 15.490236119367342
Pt 9.817501844249401 14.774572022489581 12.812506680551575
Pt 13.172451621235318 13.771036581582893 8.243688337621704
Pt 12.138563539818646 11.64263504174143 7.233017094718565
Pt 9.854517069341636 14.420790399175175 15.437996880593976
Pt 12.276188529027987 8.040734156827748 14.68068880803518
Pt 12.883810260401045 9.126765486336517 8.08374445848381
Pt 11.80524269667765 12.248073430536786 9.938448568511536
Pt 11.985673678007998 9.739717658408255 10.590370252686787
Pt 12.17537005273559 7.3470991357145365 12.192510294859774
Pt 12.398125845815496 7.025906036503677 9.666897279180638
Pt 9.657898600176619 12.210264565139685 13.746797168781912
Pt 10.673260853180203 10.083107900604931 15.459209100681026
Pt 11.290500955058388 9.420948961888774 6.059785897202337
Pt 7.6932010041503425 13.987784762896425 13.966286020737348
Pt 9.848240315817945 11.131977597559883 11.213228070356353
Pt 10.021351435701277 8.362629939025576 13.317464011835227
Pt 8.708341668032794 13.627129301934021 10.804714186501663
Pt 9.633152982316448 11.517561225350114 6.140583031814077
Pt 10.142069718089513 10.497372178633176 8.588309394952123
Pt 9.086017918815095 12.877707453199488 8.344282985069306
Pt 9.954030567554875 7.792107681027571 10.702806317233556
Pt 10.475837206079719 7.877557004671112 8.127999252604377
Pt 7.343699641261662 11.877617254950932 12.502021708896752
Pt 8.284274917419037 10.048352691223775 14.30671080180595
Pt 7.420712355731029 11.398641940842078 9.999238160111672
Pt 8.056081521307505 9.310981870079114 11.7759076407073
Pt 8.728274820002508 8.998908777701695 6.520630951445403
Pt 7.348340710123456 10.996293884469768 7.480800119947561
Pt 8.1261990245578 8.938027354495794 9.153761482336325
