45
Energy = -227.28351977 eV
Pt 12.537295388696029 13.519888110998194 11.362402998302427
Pt 15.175562696250633 13.888461869337243 11.435769115018845
Pt 14.97251955060958 12.361869254274794 13.609834131571473
Pt 12.64082567022713 11.381345751914603 12.858944126177123
Pt 10.067060322663954 11.304552569741578 12.750573741793046
Pt 12.629438538745813 12.896915860273669 14.960421248392045
Pt 13.88114167289612 10.556253185119095 15.331622579991153
Pt 9.882125441316253 12.902859448292745 14.781457001356321
Pt 13.810771000581047 14.788776315168626 13.43992462413093
Pt 11.979853807095935 15.069108446014168 9.265275109420582
Pt 14.515721702070323 15.167786982223967 9.37145633379624
Pt 7.625294114672424 12.294661799573795 13.160296729535768
Pt 12.605403806943617 8.761066716605173 13.986560438078316
Pt 9.898570033481068 8.778992045121562 13.921436207190599
Pt 8.557946025751257 10.656276186268277 15.122811855383173
Pt 11.22077215052451 10.647454541950534 15.371593979236108
Pt 9.968999744888434 13.442984101541915 11.283139115543614
Pt 11.281685871270138 7.008227959766442 12.581846103739034
Pt 11.28340957371657 14.692360339868124 13.511028047984269
Pt 7.565279006295298 9.671692982001787 12.888488822333045
Pt 9.38632976055374 14.939036542528589 9.225606383502983
Pt 7.442311112616704 13.90290026106503 11.000198076253675
Pt 8.731739201146633 14.739861917950833 13.204128201099723
Pt 11.167825920820754 8.465127358984747 7.539853311019559
Pt 11.245846357153273 7.420713604678281 9.943155707852362
Pt 11.548343137998685 9.63706096656067 11.292844719390695
Pt 10.706691422879196 13.196712653639198 7.698058666055846
Pt 8.933041815929002 8.361239425601708 8.847901570154065
Pt 13.284122000659243 8.878690102626697 8.981813219043412
Pt 14.914904298860328 9.713265888827586 12.993044893149696
Pt 13.506997308667895 7.88099655150077 11.558354356374617
Pt 13.7882777224907 11.293933089071563 10.545095270336917
Pt 11.299711382825496 11.780422317449984 9.70778351881026
Pt 15.457378842675944 9.171712134529335 10.411448221064688
Pt 12.303589827786517 10.888375251923426 7.453108074514852
Pt 16.18472329490422 11.50662915836724 11.371774684812971
Pt 14.874794944004554 10.877615383748578 8.260865547539797
Pt 13.430498571840381 13.083341961806624 8.310763438069783
Pt 7.162829831281628 10.285205749961147 8.328233944288623
Pt 9.195315762365329 10.416654245181771 10.505135275928755
Pt 9.716389451388624 10.686627036425898 7.587752788651015
Pt 8.324967071755285 12.58037505418352 8.861959047669027
Pt 6.773302934375619 11.36197346299612 10.777281113058589
Pt 6.8835896222962525 8.744407291903173 10.49602765020467
Pt 9.084139869949958 7.842925493548666 11.550267426256932
