49
Energy = -247.70245831 eV
Pt 8.354108734694579 12.842045626176352 8.291796811003072
Pt 9.067658100606884 14.916582572012365 9.788398182301016
Pt 6.997563310036864 13.379831170103898 10.54563037566289
Pt 6.517491500058691 11.078895313728895 9.285892597477204
Pt 10.728953684320569 13.063585424863403 7.2369998097020565
Pt 7.898737238991027 10.660376532811604 6.950600517639231
Pt 10.558751257619548 10.452499264043928 7.0331476265979225
Pt 6.656194845569061 8.638946216801973 8.122018610560547
Pt 10.574040237959299 12.733959155962662 9.821397644764973
Pt 8.825940688610089 14.091263663792617 12.345221006622165
Pt 6.971870252728716 8.904489057499932 10.719260345856382
Pt 8.738646071808466 11.533508190782198 11.08092538560717
Pt 11.700425588514266 14.920344387010637 8.765028322666987
Pt 9.036462276014054 9.789472523473068 9.23461257065372
Pt 9.139913078332166 8.192346994986702 7.122092903176453
Pt 12.907283538178081 11.427759682310285 7.515960632338491
Pt 11.564696681370297 10.40096009129056 9.474501366029912
Pt 14.014714159517261 13.530947795669002 8.634980813208811
Pt 8.552924523212555 11.724525793761265 13.822332029078414
Pt 8.525368643007079 7.071472711087981 9.41884971510654
Pt 13.668403755174614 15.453759319702954 10.497983607570788
Pt 10.885394451872687 12.277077046546713 12.49222379661813
Pt 6.443562099153531 11.127511871465192 12.104259189074963
Pt 11.167989315013651 15.121998620988528 11.383001080582282
Pt 12.907287955644877 12.826776435867618 10.861744634223696
Pt 13.437892672551667 14.667917332842983 12.989653919922965
Pt 11.114871372880476 7.725075967200934 8.909747651529882
Pt 7.894368776096325 9.18228542250413 13.160460752028717
Pt 10.4754597334704 9.72244899534567 11.848552620595042
Pt 13.52063260406166 8.858228331882621 8.529355666348312
Pt 10.892946729775234 14.501265244188787 13.937341327129186
Pt 10.134492842887031 9.633749578314477 14.53473494881755
Pt 15.416571732473862 13.377647476628587 10.832326823304374
Pt 7.7905886430818985 6.7797065486940395 11.896455692391063
Pt 10.911469000572339 12.029145545867543 15.110744664174181
Pt 14.848806337923538 11.104969429486868 9.325525303929059
Pt 13.287269688020208 12.005059099921281 13.49331760222384
Pt 12.91903373822893 7.681252465221601 10.898535193039622
Pt 13.052220443743652 10.281511906356101 11.518263308136461
Pt 10.387729459516205 7.061945781122629 11.34541132694704
Pt 9.460787247253856 7.186532270728025 13.822535435737443
Pt 15.631373515282702 13.147402479509786 13.423334747394314
Pt 12.955645075783014 13.755567592141743 15.378168983206853
Pt 11.902372718696029 7.882171895804077 13.390277980272066
Pt 12.747627546425592 9.929080641683363 14.879711855851383
Pt 15.295503268946957 8.774286787542003 10.499326815852966
Pt 15.657086983498685 10.936720847888367 11.924136669382099
Pt 15.327969373183063 10.6973745158901 14.559078032466289
Pt 14.3582342123758 8.695050600104395 13.065801660093065
