45
Energy = -226.75010411 eV
Pt 10.579227577646316 15.905341837562455 15.610861401417756
Pt 7.6159443049434365 12.894411029069534 10.834046407672513
Pt 11.099882660745104 15.951213667210585 13.077895748499603
Pt 7.432323875712273 10.350560533861822 11.802883060819942
Pt 9.355057930256283 16.762544154786834 11.331805276498004
Pt 8.997533333837962 14.425566946320242 12.456952057161695
Pt 7.586514710323069 12.462510966559785 13.468429375176695
Pt 8.646865357260504 14.320477034989077 14.979624241116738
Pt 12.6639817345244 14.642155560322387 14.679648713870579
Pt 9.258806714880052 14.670408867066705 9.793758137305302
Pt 6.808704478166937 11.025721602505095 9.271184988407782
Pt 8.662489928558308 10.201613901682972 14.184639111857523
Pt 10.833814986959862 13.253095318373965 15.859167852504694
Pt 13.625411816886398 15.503018764479071 12.374985451315826
Pt 9.034785226300055 12.371610057078682 8.520532482185752
Pt 9.063030961250554 9.789868969538219 9.646330111106488
Pt 11.42286820979882 13.47219833853914 8.856761857984282
Pt 10.941853373321926 10.72219384428685 15.57156832138334
Pt 11.630429073933495 15.644592825832376 10.480543183214863
Pt 12.007481088129168 13.413774874419097 11.874532654781806
Pt 10.034995476608946 11.86706533881712 10.939162591761393
Pt 10.273671707900236 12.200786225387787 13.470868631932223
Pt 13.268749441934782 12.150817571760909 15.71391220085195
Pt 13.753674273576012 14.158057804919073 9.956452590248551
Pt 9.82721397798574 9.18334634132214 12.074330874041543
Pt 12.466731499043384 11.056798441538813 10.763775304744184
Pt 12.737869768101726 11.333545577831986 13.300862875637947
Pt 11.150094641185701 10.831997011175725 8.253476277790808
Pt 14.64248370227886 13.321934935211516 13.712074379610698
Pt 10.559267447472575 8.3988459862934 14.501958751286491
Pt 13.139827199729828 9.31002476164524 14.919359037709945
Pt 11.439983890626307 8.741768989984761 10.036666060658966
Pt 13.586681593560872 11.912230452627275 8.525535695929824
Pt 15.705235575969821 12.488829720946075 9.99777504875113
Pt 15.870315192887505 14.407144569983634 11.695821417656404
Pt 15.01370200740443 10.779155369589217 11.79917385645781
Pt 15.272913399201876 10.852119217042365 14.517694824336436
Pt 12.27871026498397 8.51862888311675 12.543455922365416
Pt 13.268727433002232 9.319683619666028 8.149766899797457
Pt 14.908425890769957 8.531817358044561 13.099720550719917
Pt 16.942706338588597 12.301325630384415 12.866036360605372
Pt 14.002246075948028 8.556332855231139 10.590365308604884
Pt 15.604619469025959 10.060237703725246 9.069620487452783
Pt 17.490245395176302 10.7022876387553 10.868622027634544
Pt 16.57286665528721 8.31825363183268 11.031432481007885
