47
Energy = -237.46550313 eV
Pt 8.208448861143275 7.759405386653754 12.945704194191762
Pt 10.02667264172797 7.248679396929776 11.19119390933174
Pt 10.557592636518548 6.759053846178201 13.750827346338255
Pt 8.217543652499366 9.106153431542852 10.598211067834004
Pt 9.806936097894553 9.279413600623867 14.376395591877383
Pt 6.6817544925586025 11.210310557057568 10.812480310671528
Pt 7.7504605544096075 10.350122975987341 13.090025843832397
Pt 12.736570940484588 7.225422103134391 12.371826969180942
Pt 12.16428397036273 6.864448644275386 9.809636093501025
Pt 11.224080134504737 9.359720191676976 12.145151962159613
Pt 10.171708539533078 8.530006535527594 8.908086231825338
Pt 12.39983897308992 8.452516592038421 14.688635285577467
Pt 8.410824870687458 11.014051347326024 8.76776301305652
Pt 11.494111451884633 10.77696974376839 15.672399556166951
Pt 13.197393902613058 10.458491213711623 10.853323113639615
Pt 7.353418738048911 13.489441973214955 9.82943939743411
Pt 14.490856550520114 9.076344978796 13.03938884056806
Pt 9.689026401838452 11.280348809904343 11.479276666087875
Pt 7.809513192223619 12.944844078268043 12.427009171344762
Pt 9.669461218315632 11.920010940869602 14.150891312251757
Pt 14.446654632285803 8.12912936427934 10.531900835719043
Pt 12.986513676912828 8.944244266750582 8.54665502085176
Pt 11.191860763884318 9.453268742135371 6.680952223418741
Pt 14.18312544033834 10.345298926041258 15.335151904525047
Pt 11.173818080130692 10.876737363590893 9.345836463071594
Pt 9.967724767961021 13.208041861103982 9.46351666796096
Pt 15.769428328712172 10.472655954241354 11.06172559540938
Pt 13.106850290464443 12.544035191324362 16.561020659493497
Pt 9.452008291128822 14.494348082648012 13.77928697103663
Pt 11.841907855204886 12.695419520458033 11.313138427619846
Pt 8.164003255131405 13.27821746475448 7.306927429639286
Pt 10.375247541493591 11.889015218170387 6.952582844299233
Pt 12.590199500363799 11.202587442000203 13.295914808526145
Pt 13.022569062635096 11.245810454808735 7.37525986587306
Pt 16.15625784440591 11.014860714559232 13.59080711577693
Pt 8.605167949242661 15.55321159432417 8.76577504147102
Pt 11.823394212146647 13.624036338945011 14.453754455204836
Pt 14.394314488301147 12.7965737056685 14.350910838195116
Pt 9.052366846565059 15.05201252266708 11.299644673887846
Pt 14.524012045920017 12.213837968393076 9.418022089426165
Pt 13.57043362798962 14.512034503792956 10.593097471115044
Pt 11.234486055852114 15.536198731907659 9.59728299432394
Pt 10.486173344171759 14.574521559704955 7.121918732006736
Pt 13.937730788402995 14.997222895462425 13.126016167278427
Pt 11.490728896121498 15.123285625683359 12.25126658413752
Pt 12.50886973680437 13.543157595000629 8.42077448535956
Pt 15.28400840892738 12.958559957483903 11.916464872986673
