42
Energy = -209.51937412 eV
Pt 15.546486804794785 10.336093082322725 9.18474322703406
Pt 14.090894888472047 12.2425984842452 8.214979504139155
Pt 12.488155304921454 14.207665897551626 7.552417487122822
Pt 14.050746846169691 8.453063053956608 10.352015763144452
Pt 14.173875305149704 14.70671856675765 9.389239197723851
Pt 15.832127574382351 12.702790711186687 10.216237280709038
Pt 13.28912158312416 9.690417949120675 7.968190651412692
Pt 11.641482939370793 11.730456156636533 7.523940471314145
Pt 9.954376202413812 13.714030181992577 8.08538062390125
Pt 9.074825231574572 11.42382902572895 7.002955405013841
Pt 10.675553710317821 9.361693767832158 7.501006280379744
Pt 15.839793869155669 14.985605044323755 11.405858296355607
Pt 11.81862966090258 7.666600107117603 9.189055220915773
Pt 14.86603285267462 10.622688934018345 11.64672267904161
Pt 11.488397612715316 14.703060673403394 10.017736741803498
Pt 12.931724044248753 12.445200301311303 10.705286458195866
Pt 13.051584642941613 9.043655552061706 12.77622470813298
Pt 10.246124520831236 11.983462086998397 10.045866642197883
Pt 13.304383501036607 14.726303670708667 11.973165165681744
Pt 12.030192631978974 10.13341113034246 10.186683417854837
Pt 15.249761152863478 12.943040244487785 12.91873469540712
Pt 9.318061693202358 8.42896011162321 9.416813941722774
Pt 14.56549797104586 10.823460623980306 14.200313147785737
Pt 12.875609496664131 13.137604968967574 14.028681676476998
Pt 11.63101572240123 11.269154419460468 12.634026190887694
Pt 10.848314745320012 13.918211774323021 12.494919896206659
Pt 10.768081289185899 8.184142163423461 11.671233276540589
Pt 8.92535125141542 14.145296874210546 10.595274822382015
Pt 12.368740204509319 10.893964957006173 15.442358019951724
Pt 9.322712852050353 10.423549529879963 11.932035322275942
Pt 7.533092871451665 7.433988832812556 10.848749754772815
Pt 8.137628197801316 10.729317543261635 9.217018395060505
Pt 8.490576699177558 12.744407682877952 12.842493200110647
Pt 10.368438112694346 12.495835513762216 14.682534847156452
Pt 10.836021945000212 9.076914820903248 14.17637882941363
Pt 10.033753070725398 10.431119478085058 16.363770924642015
Pt 8.489216168563615 8.088461341256185 13.07319971669553
Pt 6.858281015191998 9.826696599851214 11.320918933580927
Pt 6.91009656321422 12.423248294676213 10.747521246777827
Pt 8.232841958815072 10.763728011075468 14.5632462435056
Pt 6.199616875642369 11.433104758594194 13.19118463532598
Pt 8.629537373873069 8.378304912326975 15.58643234697267
