45
Energy = -226.55425281 eV
Pt 7.727159975890828 11.322891107665406 7.673360614463252
Pt 8.132403868151464 10.842047695414683 10.179087456801382
Pt 9.690691701254245 9.646501280422799 8.312878642474997
Pt 9.089261004410863 10.253898933597995 12.54416030793325
Pt 7.701566363265744 13.298863989789162 9.409999002181715
Pt 9.09163921868452 8.494120674164238 10.625110316235789
Pt 10.029303085343553 12.334762705954441 8.384094453383554
Pt 8.073173580549136 12.667561177801621 12.05316607183751
Pt 9.045256608601834 12.128747901456354 14.47236324326874
Pt 11.486354277861555 8.2389034679897 9.593285191385707
Pt 10.595338299456465 12.1449457494019 11.218823982557591
Pt 7.764317354353131 15.194381978729885 11.21908235224788
Pt 11.279849551002721 10.538972415125334 13.983522708423331
Pt 8.480829057667664 14.663530758379295 13.62907432394483
Pt 10.014419664673582 14.49605128498216 9.919563901220284
Pt 11.056979308333196 8.393079534378376 12.258803057757934
Pt 12.01222652594239 10.751349762343459 8.930969497076948
Pt 9.736124928779248 14.249690831130035 15.870712057168495
Pt 11.156983287721914 12.061669524505259 16.173540288129406
Pt 11.260253862879143 13.12148887309286 13.513413035326346
Pt 13.484065258493864 6.617914546641857 10.032153840477541
Pt 12.249641558154998 8.151046068017843 14.641395757523055
Pt 13.235381432489248 7.099198634953733 12.501039932800225
Pt 15.974813326738568 7.621830764942629 10.00966647823591
Pt 12.64889957810948 10.462254911135142 11.552711447518522
Pt 9.994052876369164 16.384222033238327 11.691052308233695
Pt 13.071181806350612 13.039114161911304 11.651729471038436
Pt 12.860077026048629 10.11205625358001 16.257776132883812
Pt 10.835836667995803 15.782709434528563 14.091312908380743
Pt 13.960872698457182 10.134124479206552 13.97503012244038
Pt 12.271083736038198 13.413232916748893 9.103216744238686
Pt 13.983199680715979 9.138332017695957 9.31596705143532
Pt 12.415495381775266 14.403270920270396 15.62879080045699
Pt 14.130719194077589 12.78186675952625 14.164444783807795
Pt 14.355344087940866 11.769693928727595 9.412221587006533
Pt 12.363465061684566 15.519226560991214 10.696920917978444
Pt 14.901578070473272 8.903776777782069 11.973503878569733
Pt 13.427886797752793 15.249584001983663 13.338705644863953
Pt 15.57912237309271 11.443991240528497 12.413643727487147
Pt 13.773776663897754 12.482349561576484 16.72438639725958
Pt 15.437907710135079 14.10874069981276 12.217965524150413
Pt 16.38182600349006 10.174335098184532 10.196763438698856
Pt 14.626574245949735 14.441181449774781 9.773997077012348
Pt 16.628357829516627 12.73007751424841 10.30742254348557
Pt 12.180037519449227 17.387737727687718 12.558499090217525
