47
Energy = -239.94474808 eV
Pt 12.60496593585672 15.564935914680216 10.869065557499333
Pt 10.29752888524385 16.265101411037485 11.770615362967346
Pt 8.17904584591177 15.876422689250687 10.24805473697689
Pt 12.34952664472474 16.454261254435476 13.357869504556334
Pt 14.42275442430985 14.848555526846722 12.729083618705864
Pt 10.515226441447382 15.281845427362887 9.192316687010866
Pt 14.966288990367321 14.776050359786318 10.134187700332093
Pt 8.461653446835363 14.290368685963063 12.289727818226336
Pt 12.850430433537868 14.1509690030157 8.704359195760059
Pt 12.422703784280824 13.116676855546944 12.455014474008822
Pt 10.72375433823385 12.924074844396998 7.8218416519639415
Pt 13.027180024743744 14.518549429045624 14.977187753169801
Pt 14.98816297489731 12.57410171478522 8.71901219157087
Pt 8.477456870564716 13.358645114747356 9.084349435864242
Pt 12.574574368954918 11.840119527193709 10.126135353394055
Pt 10.446204587690985 13.27363712867609 10.808655934772528
Pt 6.453914020661749 13.944634558343038 10.628043871325529
Pt 13.090693754943548 12.449678415512958 6.7107630280381345
Pt 9.008386531578527 12.479186775816332 14.039289931407986
Pt 15.031690907894312 12.532034526714254 11.464625150899614
Pt 10.56803836799343 14.532469605133672 13.821154320423993
Pt 9.570083318281467 10.95427621342828 9.200661608891306
Pt 11.87060719035964 10.491287884487956 8.012515471803228
Pt 14.483708342603757 10.333103181904342 7.462595341308674
Pt 14.67343899120452 12.545188580724988 14.085325300852318
Pt 11.166334805972042 12.600143039698219 15.51030434443345
Pt 10.353227449644404 11.136130409572353 12.228132213603416
Pt 10.821128931478253 8.676882660716796 9.570537570032867
Pt 13.584453137323537 12.491740055945684 16.529518256364252
Pt 14.863149820166342 10.300848851038838 10.068046010864945
Pt 12.303475836550621 10.88642204198952 13.830183994477402
Pt 14.812580751441915 10.24592736973229 12.715090707649278
Pt 8.727407444538466 9.297383343261865 11.107663047504362
Pt 7.821009838784393 11.759192975505512 11.23785296564826
Pt 12.304038932382642 9.633136305289383 11.486662731316917
Pt 7.773097879009104 10.244406977520748 13.451385173227314
Pt 14.197740466674777 10.191314607977342 15.412169710328445
Pt 9.718826202922513 10.295222172093377 15.38288476432809
Pt 13.40701348529667 8.39683109588577 8.829391336045724
Pt 11.890680151033068 10.512148031513828 16.935446791380652
Pt 9.796730673411565 8.579677654877031 13.45839217848443
Pt 9.916662168328195 6.957242691463155 11.373695419984998
Pt 14.25549876956914 8.00183059836601 13.964360638515075
Pt 14.37026569706003 7.990865186978663 11.305324648366371
Pt 11.892515170443753 8.636196460846906 15.07881114471248
Pt 12.038436324263495 7.331292909759702 12.796760582636832
Pt 12.338878869333367 6.557090155568067 10.302991447363052
