44
Energy = -221.4742067 eV
Pt 14.288867774539323 11.967240495048237 10.625174313063754
Pt 10.74770139164167 12.847881024299486 7.238148107674636
Pt 11.685614137189596 7.561021908324373 11.893710070929377
Pt 9.18399338234038 7.828243274480818 10.99023895714697
Pt 13.657791987137708 12.978832094855628 12.990819790430248
Pt 7.259708332825869 13.62488708646754 13.928872887207312
Pt 12.127226259589955 15.174322895109842 13.034614777258664
Pt 12.537923410194562 9.078895750409682 13.947657149503529
Pt 7.572820028521065 9.950264430390817 10.148068369447998
Pt 15.255260904849335 9.472836182404958 10.488064144549872
Pt 6.998485916219561 12.550289086391802 9.703969259995121
Pt 9.103242446480024 13.966124873739089 9.066642169506363
Pt 12.818452941791671 11.359255946512437 6.347194003991742
Pt 14.950467942381605 8.269148270396236 8.05565318620117
Pt 13.430019004206278 11.275671056002537 15.10415721665688
Pt 13.225832361572376 13.02369564232823 8.429479537774995
Pt 8.262598332548805 9.964026587227066 15.152201454219812
Pt 9.288957248116288 12.118056665826362 14.368243908611845
Pt 8.735822769494026 11.375745627107088 8.237590260172086
Pt 11.453523316854241 14.983020217548281 8.612890312669762
Pt 7.543702085712177 9.239524096674891 12.67607720486235
Pt 12.379661018473069 9.186511188439397 7.817597418194636
Pt 12.79602657206271 14.11742127523083 10.757957882387082
Pt 6.2020813623399516 11.100959632884265 14.059720966927097
Pt 11.648675708667849 13.237177185717554 14.804478295673423
Pt 10.871070466839814 10.379653255594446 15.45445800180621
Pt 14.688081052814375 10.539371222024947 12.87420135702332
Pt 13.005007014989499 6.536678843153927 7.720961138362807
Pt 7.9228437465778185 14.368158797847054 11.429447618137216
Pt 10.011269581258553 10.248581214636998 11.138255940005665
Pt 9.154907495532752 8.752443598520813 8.416548489876662
Pt 10.381275562617708 10.26135311076612 6.647525243978933
Pt 10.31260662041717 12.81194551815564 11.094664708383913
Pt 14.50743065257483 10.771892133721048 8.291493804686635
Pt 9.944195553233325 8.725087861409754 13.490685055354204
Pt 11.086548914003462 7.334130797096581 9.240160417262617
Pt 14.30517375291546 7.902220126360258 12.501019222541862
Pt 11.578899908320494 11.437622702468863 12.856503148748297
Pt 7.788918963605835 11.803564410568214 12.093024786510275
Pt 10.434931686315906 15.431234615368869 11.002524388651793
Pt 12.653434347868927 9.872598880886573 11.036451513413741
Pt 9.696063364040805 14.51784993458726 13.442106943259523
Pt 13.627408913621915 7.332150840847565 10.105744723833133
Pt 11.444342619107202 11.291276494572916 9.253868705511616
