40
Energy = -200.49420167 eV
Pt 11.927524515369514 7.217303323656428 11.285162018019218
Pt 13.31157638417167 9.839695950772494 8.182366502279072
Pt 14.261608736599293 8.538361463951814 10.388761659405262
Pt 10.165968176698016 7.807266269078215 9.381677090930992
Pt 14.794995282335577 11.089788167110722 10.046490060280869
Pt 8.902336239305304 8.33566246103733 13.760765629801158
Pt 12.634155069570488 7.328017944745853 8.74466101364858
Pt 11.15539895959919 11.422591791682704 7.169763699113695
Pt 13.330312768795105 8.23446468484333 13.507056163840804
Pt 11.061854061475946 6.939315789086095 13.683437276521442
Pt 13.336952952278795 12.51397943867542 8.293855495410961
Pt 7.820508292175319 8.605075160788292 10.13063419797263
Pt 8.955616578070233 9.938801888569529 8.050802702287507
Pt 7.404320512621748 11.164531623536591 9.956035784475871
Pt 8.928333324867516 12.601261570163134 8.240492547777526
Pt 11.122020475111656 10.254774926387356 9.528180277130005
Pt 11.141929104272904 8.77634686418677 7.028763129446313
Pt 9.742250330277367 9.635733037584032 11.682980232132769
Pt 7.276289627134652 9.910251852016945 12.407647814279422
Pt 11.157894495111028 9.348185494747469 14.661020848990196
Pt 12.379292585019055 12.223345332281792 10.730062413786197
Pt 9.732590762389218 13.502214381095001 14.140262412150895
Pt 12.52737074652619 13.445358445061343 14.09004835212736
Pt 14.914598647226793 13.714780290251989 10.119783784526694
Pt 15.089446888573278 9.90476472665751 12.49319618101228
Pt 14.494681248215418 12.43444078680744 12.453016944518177
Pt 13.363632890992255 10.883471275380527 14.298288076312948
Pt 11.124143741593157 14.794119129817583 12.197507666371294
Pt 12.410533643960113 9.79083254307721 11.666783628458615
Pt 8.876848006639118 10.971408362436746 14.318718557775606
Pt 11.161958720375079 11.771568482487146 15.609091019743536
Pt 11.161353644855273 13.961716122856117 7.712326748318871
Pt 12.464414662055919 14.701895290974173 9.855077164787096
Pt 11.027259168452206 11.629211741601722 12.850672095551914
Pt 9.82543820749851 14.674565265487237 9.862400469517073
Pt 8.571656547140696 14.893815874512597 12.177983432122714
Pt 7.715470000408077 12.476579868425373 12.428632042085715
Pt 7.343704264165025 13.781109720747102 10.089792660914904
Pt 9.774825923557929 12.15011942590627 10.68261289532273
Pt 13.693173814515953 14.877513188554735 12.177429139006827
