41
Energy = -206.03422872 eV
Pt 15.249694031656142 9.849394130669404 11.817217082239216
Pt 13.955650803949228 10.41403562865387 14.023500299704603
Pt 15.548644479441977 12.223761410713974 12.933324638729712
Pt 14.414530808855263 12.757372389562502 15.208726788283423
Pt 12.12973459724649 11.56410001466354 15.707365340407593
Pt 14.66815660597448 7.56405247126226 10.59656254322274
Pt 13.097306235750406 8.55576545682149 12.417098551588364
Pt 11.551765484716583 9.330698291409135 14.332371723559321
Pt 16.582983422996186 11.837713904336779 10.552763629368068
Pt 16.256713856942593 9.46248137977172 9.466543801024672
Pt 12.027935137923347 7.480061636159583 10.199560632329339
Pt 12.230872006022153 14.26282737023843 15.475152157009152
Pt 9.690587223102034 10.61256609730039 15.665299109641662
Pt 14.242662097238782 12.97406488961262 10.811315229427064
Pt 10.73975195501614 7.400507520874106 12.570486584274073
Pt 12.065502415583964 11.822711593756376 12.886646671214521
Pt 13.430114453591827 14.00565131932471 13.096776518426328
Pt 8.90392767300296 8.75358847259409 13.915522094077788
Pt 13.653255425374168 9.1985774293114 8.94684889812322
Pt 10.145877090539342 12.943774038349591 14.577507896905102
Pt 8.431524024360742 11.316858989686738 13.497851833091921
Pt 14.813976566963033 11.542325232814692 8.613819975102084
Pt 12.25390555999546 11.06999206589639 10.39022688170743
Pt 10.445700561909371 10.003499460464468 11.942820221619918
Pt 9.472208046030966 8.105328499622708 10.375625932967067
Pt 10.947000336202288 15.00121084173731 13.235926676953646
Pt 7.5315226781502105 9.406263440437861 11.733089862456653
Pt 11.01558124130231 9.444980396471331 8.680088516734925
Pt 8.550971606833986 13.853039249684425 12.7532725734201
Pt 12.681502152191994 10.937687119818376 7.2403886032637255
Pt 12.09056704477172 14.487851786352739 10.86631453582268
Pt 10.278981059299063 12.60336276517039 11.175357277792216
Pt 7.139999349671483 11.994317385250515 11.36357589211758
Pt 12.765938713885456 13.198302181764843 8.669086308348364
Pt 10.424449784082364 11.962870457554601 8.118892853036487
Pt 8.833538085652352 10.614173325243426 9.781006594050053
Pt 9.657701529295906 15.567832961146722 11.042690865777244
Pt 7.001590562858471 14.583396642727896 10.818102708662101
Pt 10.577397488867806 14.563866060156387 8.636366732607978
Pt 8.405574377899882 13.116889291194935 9.218758006366734
Pt 8.275143883686457 15.769239951546188 8.849797230550337
