43
Energy = -216.81266698 eV
Pt 13.116077499595267 8.088835827968555 8.580457024298761
Pt 11.16623688822035 7.136745601811035 9.943916808030009
Pt 14.918847766257532 9.575010413116074 9.735873378158137
Pt 10.81585693895978 9.381834989653003 8.433867471960928
Pt 9.236654889000645 6.191953931024608 11.304612768285795
Pt 13.278702755590082 8.16014057861923 11.292691311792666
Pt 8.86625951497997 8.425129018933829 9.978680088627003
Pt 11.029500189681643 7.643032899952197 12.594574305904908
Pt 14.911450646076693 9.93111943181942 12.40585010070923
Pt 16.531163505814977 11.309074119622881 10.759697148699205
Pt 13.086998970716566 10.694998144125368 8.08801798220107
Pt 12.824882658224976 9.072189509713832 13.850731216166745
Pt 11.008471519091792 12.412419481435919 7.392524427887214
Pt 8.697869446839373 10.813635971447747 9.032282190720917
Pt 11.658944931291153 10.158863958493802 11.809557954597159
Pt 11.064931536286961 11.568388580596901 9.783731435393952
Pt 8.4408913422725 8.194537018275097 12.742171090015587
Pt 15.886948778805637 12.25939945748122 13.240048999538706
Pt 13.582151251266172 11.58809623978002 10.866740167662133
Pt 14.50785180540198 10.856919675724367 14.835900736667913
Pt 13.234837669427995 13.198088474120269 8.710851190711196
Pt 10.215302769559466 9.643307208875857 14.188439401462201
Pt 12.228897403035582 12.936261915507789 12.610384114201835
Pt 7.781802500696897 10.340809172286157 11.433332774860146
Pt 17.398030931970606 13.634532734019462 11.716861424575418
Pt 10.899930307250276 14.217007244069212 9.543672917348076
Pt 15.293944052868811 13.536978740037554 10.181649099533777
Pt 7.661711642024905 10.250121199439285 14.050588038679846
Pt 11.967009713087418 11.52543173339692 14.804738193070657
Pt 8.683100682110783 13.330823158694802 8.438432537931348
Pt 6.882687030600392 12.431416404662913 10.188562091367478
Pt 13.906800970519097 13.434981559316055 14.57511545897582
Pt 9.876268295878624 12.004440567005897 12.00174276652448
Pt 15.174230823247386 14.759369356370213 12.59065478275288
Pt 13.079662399399833 14.744155758832484 10.896432143386207
Pt 8.636937203612703 14.175276434990009 10.960250259913026
Pt 9.42095188637735 12.166864212148244 14.599789097477162
Pt 7.385499634144155 12.638325711328758 12.858408331848405
Pt 11.266625810004008 14.057204593197067 14.784494470159306
Pt 12.940312936191466 15.6939474975737 13.448531663586028
Pt 10.739337137267258 15.447102068529224 11.820410966607588
Pt 8.90046156257776 14.640719161947024 13.573620217122867
Pt 10.582612639312226 16.538941236365744 14.174376192614814
