43
Energy = -201.47592963 eV
Pt 15.538232185505896 13.982303993484551 9.11324406249551
Pt 17.105559802667283 12.11282978722408 8.467791395786136
Pt 16.42148095624918 10.552505974003388 12.638591890949378
Pt 17.444863938463197 12.383191149903999 13.947448817420016
Pt 14.92915489509399 16.585711995920153 12.561577959340982
Pt 14.395052767499525 15.577274344923552 14.964162514770782
Pt 15.295469071063623 11.378356237452078 14.903774470522865
Pt 14.687171038482104 11.28603622251624 8.542348623578679
Pt 13.350394544680894 14.950055337171369 7.972331865519188
Pt 16.1153757077908 14.389585140159118 13.376481415033481
Pt 15.70157256348454 13.65843120677882 15.8065859529215
Pt 16.570241722428847 10.337040372374616 10.157156900655762
Pt 14.702911633638692 13.163192459894349 6.851642127774432
Pt 16.527666332293066 15.18555409978343 11.064025345182275
Pt 13.653025357860871 17.916333923445386 14.234196633647793
Pt 14.279486134045445 16.032571911958463 10.229023803773458
Pt 14.802809787172784 8.95982449405362 13.943832458621499
Pt 15.843833528198251 8.281342925243607 11.69377930986187
Pt 14.150841017866073 9.286771857124082 10.183359909838936
Pt 9.468552502304847 14.094168749677864 11.075599366187726
Pt 8.706372349546514 11.713795654003802 11.205012910946344
Pt 8.62220701086083 10.269991590125564 16.24675991621469
Pt 8.772229270451424 14.046508741672174 16.988317566419727
Pt 8.998617090835975 15.802549473910215 12.8199852391905
Pt 10.786303018694872 15.57332490621136 17.323447336478004
Pt 11.17885718634663 10.364398082421978 16.0817863064338
Pt 10.670156454595338 10.886207521466549 9.774039224421994
Pt 11.123803292522222 14.77433118400658 9.101769796601708
Pt 9.740713527055576 15.260428190216622 15.032010975860329
Pt 10.012190372603401 11.90650180234195 17.63651627412249
Pt 10.068981780962003 9.861172084237625 12.131555109888327
Pt 9.573635251871387 12.882925823092815 8.831863317554086
Pt 10.746066596925337 16.37533267653744 11.152060726882798
Pt 12.329295933945302 8.960795935488758 14.113941875296693
Pt 10.996437231244789 7.491941032431137 12.57886601157554
Pt 9.711419029869191 8.93052158963728 14.42425408309441
Pt 11.763323147338518 8.63701227276332 10.441235662570115
Pt 13.640711559008231 9.962138333271458 16.067952414823775
Pt 12.042824392280728 16.381396441203016 15.333258145766361
Pt 12.253308677399454 17.02998637298153 9.205053793786409
Pt 12.531675106492042 10.021243074771968 8.360751846496266
Pt 7.326493246225768 12.050990516179542 17.44338372193246
Pt 10.554673374890713 13.8374149066916 19.113213308518155
