48
Energy = -237.59427651 eV
Pt 13.472508387663954 10.865421208640472 8.30051904217569
Pt 9.885352038344545 9.917468944573047 6.760444940771731
Pt 12.416485969489154 9.715333726731064 6.242706696226389
Pt 14.378769840376874 6.579204455966663 9.557944164721464
Pt 13.142261948992376 8.202801033773847 8.12190671784532
Pt 14.541901401938086 9.078417563953051 10.190735307675933
Pt 8.4320892644483 10.079008372388182 8.903590021586334
Pt 12.762379581574805 13.27905671804773 9.196644553812066
Pt 8.699710508196818 12.328334288350828 7.695182734253127
Pt 11.052320505953691 9.54924832186529 9.072962981327091
Pt 6.48195839691194 11.592615952772398 9.425914292674634
Pt 17.24678659018396 12.813444167638773 11.276783273670068
Pt 13.206625284410393 7.104029629276381 11.724468736446148
Pt 11.159351041433155 11.91639857942545 7.8367538764806515
Pt 16.106233963983343 10.577561312104296 11.644035203644298
Pt 10.331291423894747 14.229522437571328 7.150256604909112
Pt 9.631091590620295 10.106571669176368 11.177752182607675
Pt 7.925384364596899 13.726256289914957 9.617030131420325
Pt 15.068296871891292 13.854281352524824 10.437040330536199
Pt 10.500019802149325 8.861694869604426 13.259752123925864
Pt 11.825774793545202 6.708702273910181 13.731941873783297
Pt 14.392951146155186 9.04016090056727 13.020606423092607
Pt 7.932238824274004 11.953064908007386 11.555770863538731
Pt 12.246087385411144 9.543520217297681 11.427384067603466
Pt 15.577384802775816 11.180517397200342 14.0383287992759
Pt 13.963613753016597 11.597118389074891 10.723455559757127
Pt 9.105143315052297 10.999145860652947 13.596182673149055
Pt 16.587055862972026 13.43898948079678 13.601418513673716
Pt 8.830775375149969 15.271229462118344 11.440122144976966
Pt 12.505954851908912 8.84594217424649 14.868898915694107
Pt 10.56298373804664 14.86533741192895 9.544288626090248
Pt 14.88047097262474 9.362997028201232 15.68184536372423
Pt 12.917175965929735 15.262988959259111 10.820382173098084
Pt 6.582800069126099 14.14183809660478 11.849830684081134
Pt 8.58013402376342 13.552327810645934 13.523076279360227
Pt 14.528687708663908 14.632224666208293 12.78195225508973
Pt 10.263295976472705 10.124761013361612 15.752920778053468
Pt 14.93516571593952 11.947725112795437 16.342646795478366
Pt 12.665561093710426 10.58331507461823 16.64034726175802
Pt 16.09542903433478 14.148243793403422 15.945792300906131
Pt 10.862738371384488 16.741373728232166 11.425054985630144
Pt 9.700495879006649 16.142044479975073 13.697203114555476
Pt 13.860517430109624 15.059983657643588 15.234013993002204
Pt 12.620201832156548 12.972120409577307 15.943546651135627
Pt 10.11958322967944 12.646981192493582 15.446165243008267
Pt 12.29943493428058 15.767832806160202 13.327941987069392
Pt 8.750406159143864 14.899159976088717 15.749215408934756
Pt 11.295704011180975 15.122267857499889 15.625827380639171
