48
Energy = -243.89322213 eV
Pt 13.937851719067842 8.330375304227807 10.931158892729728
Pt 14.132157018067781 10.128487927218318 9.107539193133736
Pt 16.289923926287145 11.572400684306901 9.087474481994702
Pt 13.784011451048835 6.5021883815945865 12.739563052394342
Pt 11.908477205513584 10.990838466311773 7.853536678674796
Pt 15.802365665097412 10.137333334608588 11.217902504421659
Pt 14.159251391623656 12.593987695510352 7.911083039581072
Pt 11.901332958440593 8.766822823310651 9.348382542739667
Pt 15.138279048504621 8.749088363176726 13.372612099071066
Pt 11.49324176967399 7.266542423919065 11.664568431466996
Pt 9.723854417170061 9.656025777851408 8.19502839487238
Pt 11.764696915877256 13.467153572734892 7.199501542133026
Pt 17.143331096410865 12.331057239255054 11.529064093855839
Pt 15.069710768381299 13.465287019700188 10.356288888447114
Pt 9.157221560702768 8.173251562757015 11.027281372241315
Pt 12.510244774443644 11.883482100209193 10.215359579331912
Pt 16.093332297611322 11.179579720134871 13.733928368752363
Pt 13.878939264640573 11.836292810698621 12.421655407367787
Pt 12.143845715132505 9.973969026714949 12.017125327067296
Pt 12.612124613273702 8.38308226165995 14.061432139803701
Pt 7.551007406568723 8.607782932950562 9.140036223482987
Pt 12.874315687218564 14.46468904897137 9.324261204396803
Pt 10.009363712638566 10.575159847019735 10.549328981164054
Pt 13.755681095949324 10.600579186554132 14.85521169678293
Pt 15.481791456213097 13.834731849746118 12.976587573936492
Pt 14.854952824190608 12.928536450334619 15.357339711673227
Pt 7.617029756814715 11.042590435539962 9.797385568914756
Pt 13.794135791828692 15.330262749635278 11.592181569389014
Pt 12.027616937848732 13.63089344926503 12.570786446447075
Pt 10.265633738015646 13.128488491844948 10.733132841655209
Pt 10.265602236813674 14.859852292764689 8.838350849716868
Pt 13.378083729175298 14.89127093137068 14.41032413706021
Pt 8.032500731047413 10.183801304059491 12.451318097499199
Pt 10.013933718098542 8.456858950114867 13.452304549609627
Pt 10.296498270192197 11.692314248414066 12.936763122722429
Pt 11.169962869886707 10.277860603801011 15.086240300714474
Pt 12.259834012141274 12.657908043696498 15.450674374763272
Pt 8.049757043648864 13.52167032365121 9.279223334751123
Pt 11.473555124964683 16.28602508131468 10.723504756680535
Pt 12.7234466246689 17.099683001331556 13.10066087747424
Pt 7.464704794438677 12.804917215814413 11.712308819520594
Pt 10.720394834645232 14.744172935618481 15.461707660888985
Pt 7.193590719605953 12.011816965425714 14.169918568373806
Pt 8.870293135013876 15.251733737335002 11.16659101625007
Pt 9.612913508366015 12.368443716707935 15.52061247754115
Pt 8.598531471371302 9.97483501387591 15.025716102727094
Pt 8.799560898658005 14.011768171328141 13.588594474393764
Pt 10.571106301507102 15.744098534113151 13.108440639889341
