49
Energy = -247.66235095 eV
Pt 6.968347349880198 11.479411077636682 11.888845075351613
Pt 7.455356217338496 11.347435649908244 14.487686225236855
Pt 7.519175672244351 9.00117493277789 13.18366989555615
Pt 6.762935245536834 9.0517330845349 10.604956722508472
Pt 7.961595269369813 13.033644909656987 7.666272685077139
Pt 8.398524194309113 13.420085966327639 13.059883222893399
Pt 9.31410849182592 9.48717860426204 14.998788088831256
Pt 8.650298570778562 7.35761656108618 11.435165365113976
Pt 7.613746071468197 11.080783668072513 9.288868658397709
Pt 7.597616465597784 13.62575921833075 10.454509678034917
Pt 9.24034084601064 7.028983906637481 13.964698018578096
Pt 9.164899780321075 10.158379269727462 11.557431665797244
Pt 9.927633859135558 12.099315407543436 14.88974375809749
Pt 8.95266672000374 15.27862010179447 8.795916160622108
Pt 9.816537025017787 10.817667985770957 7.561345759953949
Pt 10.400279744485067 13.759731576742618 7.041776270425448
Pt 8.885936562636845 8.747374391645632 9.008877113967541
Pt 9.90466446690916 14.976812616740517 11.345470829964153
Pt 11.305508018101124 6.328180822018987 12.442225050946226
Pt 9.912927858790809 12.882387142483983 9.541286319049492
Pt 11.109187755949037 8.497330722594818 11.228786969643606
Pt 11.150470873804936 10.229914023403643 13.238680038508848
Pt 10.290956552624031 6.536359415199112 9.551940296730264
Pt 10.525891314466685 12.396685063567373 12.01924337189111
Pt 11.128776193178133 10.627797392187643 9.836839141958132
Pt 11.65211251694375 8.009241540818996 14.472954801623008
Pt 11.554753241376021 15.221271884316334 9.17080657053773
Pt 11.612770346994354 10.231846633381203 16.060589350106657
Pt 11.004052290751245 14.28066510015183 13.687468626484474
Pt 12.83867608274647 7.056465110221972 10.007358653798816
Pt 12.049702454712415 11.716118231702266 6.5385869495827755
Pt 12.452809174707355 12.658289076293416 8.972967432764495
Pt 11.452414260728979 8.549468976512781 8.22083913490577
Pt 13.668705628578486 7.748608172309665 12.520926267433337
Pt 12.9577302399745 12.774426793414397 11.486695046066858
Pt 12.54305970215627 12.33914688239288 14.858588467174977
Pt 13.101279777691019 10.205772177847297 11.514203985168821
Pt 13.426787584908617 10.289339037945966 8.284076392515434
Pt 13.018528976469037 14.275093617144199 6.958982194447304
Pt 12.593260058162112 15.312633000766496 11.605659146707131
Pt 13.613216313535489 9.851017486338462 14.41700369587526
Pt 14.725895694321794 8.880166108304055 10.072422997143711
Pt 14.131297900352937 14.822134518697753 9.315512684972576
Pt 13.68805211754835 14.411134167386415 13.84107364533584
Pt 14.991397515147053 12.494394233833038 8.372453240336917
Pt 15.514759886236007 9.659324355501278 12.625533810146718
Pt 14.80967957095961 12.091306428286096 13.378778518981868
Pt 15.327428848176043 11.504499401927601 10.713006725614942
Pt 15.135246066031277 14.19888041119782 11.609529760104957
