44
Energy = -221.49893693 eV
Pt 16.912436475244352 10.885640756948854 14.157135032511714
Pt 16.91376353301978 13.514820569309238 13.7323771705782
Pt 17.537581207126994 11.916747680295698 11.772187587643515
Pt 14.75130344787783 12.355157904597585 14.939511375515849
Pt 15.97043131082192 9.74687182497155 11.95851339251516
Pt 16.088169218707556 14.074943956443208 11.149893038962105
Pt 14.61992304425699 9.680223841384256 14.324824744417096
Pt 14.502424919555134 14.4880082908043 13.34985276875346
Pt 14.790297582096523 12.019219623488551 12.368568447616559
Pt 15.640118125079898 11.70901976573544 9.913682954229142
Pt 12.481346042728395 11.043310751875062 15.531956272954805
Pt 13.730948394759789 8.341953599438686 12.11987912697224
Pt 14.545315711593915 9.304864924824503 9.81820346454769
Pt 14.0397296280902 15.75152590600901 11.063367481100661
Pt 12.470972712666832 13.60371762900474 14.857531974188268
Pt 12.381870246850797 8.434770975024847 14.484317797093414
Pt 13.972267500442817 13.731282695900468 9.41506976965844
Pt 12.20363542846967 10.470601177871394 10.44310638791334
Pt 12.492591514560859 10.830167952827196 12.962515139212202
Pt 10.081474655400747 12.39453734730896 15.425688851072952
Pt 12.466257107007095 12.946334457559226 11.375602813637002
Pt 13.582223758796143 11.360084543135008 8.372899689460805
Pt 10.455733471124635 12.518482609018637 12.889898369941703
Pt 10.059096573943648 11.915632424099833 10.414995201591983
Pt 11.078388022429555 8.507052790262927 12.15611359608627
Pt 12.152199189577543 15.37974045432512 12.788312094613083
Pt 11.646603737461392 15.019493912780424 10.053206108153665
Pt 11.313039014966686 12.872766566704998 8.37089690679916
Pt 10.246624625605218 9.925384537196049 14.275130979036623
Pt 9.867175094340556 8.950072347325394 9.866118598631559
Pt 11.525220618922955 9.877228983071916 7.904505760103463
Pt 10.328763219450671 15.059375810904967 14.597206326484649
Pt 12.283776977118634 7.91084218476074 9.810774962125365
Pt 9.701595189675809 15.008894279374006 11.981491775689882
Pt 9.202526714839196 14.209792759021575 9.545664111966037
Pt 9.224695031763247 11.058319953655069 8.171595241791964
Pt 7.794093758366338 11.675205821779185 11.637434179015308
Pt 8.597445797298166 9.292828199219448 12.207164046459468
Pt 7.999028389462669 11.13382419488348 14.121536468356537
Pt 7.460903867889479 9.789437238878117 9.76486207064891
Pt 8.215227013705476 13.819438912717555 13.918246871568577
Pt 7.2598537621269426 14.135235555726902 11.354508276364712
Pt 7.2559880160376915 12.440948231523883 9.198371389689914
Pt 5.994765919589044 12.729749860518462 13.290743967028869
