47
Energy = -238.05070426 eV
Pt 14.940297304819321 8.536982022835582 10.817672277356351
Pt 11.02845585006326 7.421250510067684 12.953533580712273
Pt 12.560365473905822 7.352836985361989 10.723903924130324
Pt 13.281684195156602 8.781464937741408 12.859643759446975
Pt 14.911352325366359 10.804457552288603 9.489210829638964
Pt 13.59311279886474 8.571778137222013 8.49149132456552
Pt 14.95719095425658 10.853618383247161 12.188936356418735
Pt 8.603882455732348 6.370303797397762 12.829470143260279
Pt 11.423690211593687 9.380879753370422 14.632237320037486
Pt 13.622637774120042 10.844166750492603 14.63399543526003
Pt 9.19651852815198 8.04908858367885 14.96639234088135
Pt 10.091513721380808 6.45004164029811 10.659361496996636
Pt 12.513094353109583 10.014172535492628 10.453148804154562
Pt 10.072186361321279 9.075735543271339 10.418858451266644
Pt 11.000237817719329 7.609452766623252 8.482912246128375
Pt 12.31751988333668 11.503662387511778 12.541441194729002
Pt 6.965663241085338 8.285596257367624 13.59033007210287
Pt 13.950286456532462 10.755098684710296 6.957895162075591
Pt 14.587042922410667 13.114410811551124 10.805821245507618
Pt 11.866058996527997 9.067769491421336 6.537152606198212
Pt 7.687460281657914 7.95148407525165 10.974696024332902
Pt 14.608742695017662 13.113731523035392 13.465862399280674
Pt 11.354548574199349 11.443147220169012 16.10323473937274
Pt 12.066430296088706 13.311800579038756 14.392399558381397
Pt 12.554579607358828 12.796516244443156 6.013389640616175
Pt 7.784684972053988 10.678070833648793 14.468307333025802
Pt 9.451247286533299 9.852638977402776 7.45884441381899
Pt 14.023166809071409 13.010230457930385 8.263230019990521
Pt 9.863706660066734 12.023675349654825 12.278220115459622
Pt 11.745839916736834 11.041710779098178 8.230301434228954
Pt 12.695816803579907 14.498358163251085 12.166468384541417
Pt 9.455652721091989 9.57815595016393 12.84201542302639
Pt 7.035988584104164 10.341744811239483 11.885265686377734
Pt 10.070813920320694 12.456640728513598 6.719779513921849
Pt 9.653855692505008 11.509488024596513 9.744333437756671
Pt 7.506855329531157 9.90734558638294 9.310601527604508
Pt 11.95422898124234 12.627429903868522 10.265278608105115
Pt 9.499062187372305 12.637484730095307 14.778644693725049
Pt 13.339153099914144 15.188399774350893 9.677788414042249
Pt 11.565543409963297 14.191323719973841 8.025470751490198
Pt 7.212358590811171 12.41838246010564 10.263221499804462
Pt 7.683372489459031 11.859958237278887 7.581631433233113
Pt 7.510043765356234 12.807986691450019 12.899591551858771
Pt 8.987932231608742 13.871527816590305 8.747668937344663
Pt 10.760675637266747 15.061512912842314 10.397129780502187
Pt 10.133255602995064 14.498578022308209 12.931673948743702
Pt 8.246141086719103 14.671503839944217 11.136862165371598
