42
Energy = -211.07906069 eV
Pt 12.33303267265591 9.61691839617259 6.098230763794543
Pt 8.098019437667208 7.968501172404154 5.758281783659424
Pt 9.756314849173624 10.075179008722902 5.655953276018776
Pt 11.463837522272453 12.036969026808165 6.62014322912368
Pt 10.686150268313451 7.531915834217549 6.026157505929113
Pt 5.508909605905245 8.374377843512754 6.226555971519135
Pt 6.401209599507528 12.50115836479449 7.753424647990455
Pt 7.230176815353578 10.41236670345741 6.298327190656563
Pt 13.348214579373968 5.962055230045858 9.367874784287157
Pt 12.642000226879558 8.012301955126748 8.052414804138849
Pt 8.884907787016337 12.266233108963775 7.057697872059972
Pt 9.80122881261596 7.649941139676331 8.550312107821835
Pt 5.260641397236194 10.186550747887152 8.243612798934393
Pt 10.66249762143306 13.842267207447188 8.319264605147902
Pt 6.77838472820615 6.470398418351758 7.5466154259972615
Pt 9.032519355903439 5.550642621210831 6.529616227032003
Pt 10.567416985505137 10.023799140137125 8.105882343966979
Pt 7.571492217453505 8.922180375395095 8.43744742807669
Pt 12.431099672613325 11.880081446428497 9.027692354936043
Pt 4.741325578676131 7.684122656318967 8.659791151063175
Pt 11.322264943167449 5.5761409013264185 7.794094725361642
Pt 8.651119954188486 5.376682988617488 9.159831663910422
Pt 8.289265320252499 13.412780865468347 9.462179477375331
Pt 5.4111240303095745 9.143786356067112 10.71241514705277
Pt 8.82655762982318 8.496423015244128 10.734225876196362
Pt 8.66917941816827 10.83811908081682 9.735323421060361
Pt 10.96721824740422 6.0274316756937845 10.460961518923973
Pt 10.554907175283892 12.92876762698195 10.740026347401589
Pt 6.682818715605447 6.800827441410747 10.231425740633725
Pt 13.318391622654378 9.558991862836642 9.969649987062269
Pt 12.977675932708268 7.39161073984147 11.474668055533103
Pt 10.936725240650496 10.098494198400383 10.706115868247267
Pt 6.242790467962231 11.690889501086719 10.224307327078932
Pt 8.67180377767829 6.098833504934707 11.749041938464867
Pt 6.852181266103178 7.986970922517654 12.613698384537742
Pt 8.281822375569403 12.191368185292067 11.965854968872733
Pt 10.571837905570487 7.80351596340247 12.607126851468287
Pt 12.940972310129059 11.898148522183277 11.564117566851651
Pt 12.538917704777287 9.569463588436644 12.73076986488172
Pt 8.775641382928699 9.715854002000633 13.093022336952245
Pt 6.312216172675215 10.602173347334793 12.626105607962295
Pt 10.659685003566468 11.479261643963929 12.964237382953208
