46
Energy = -232.61200312 eV
Pt 10.43436003630635 11.597803548954332 13.975639650858158
Pt 11.11607364052828 13.11624821859584 11.96190905651551
Pt 12.743802951450135 16.100408587677553 11.512850091188028
Pt 13.894894651417754 10.918156630484628 16.083063283844915
Pt 10.46441330659643 10.671561496934695 11.44129104389091
Pt 15.227366696985214 15.0305467397139 10.799304574973657
Pt 8.081572642206906 13.715075547400003 10.699994611788775
Pt 10.289752008343639 10.969789078363128 7.936569796151291
Pt 12.695671130143943 11.22895052426345 12.691049255051093
Pt 8.216949476120837 9.164821696013139 11.573914648240397
Pt 11.979461080231886 9.451375986597185 15.101349024928973
Pt 12.025610684435643 8.220034098668389 9.039495921050044
Pt 12.082107429103061 14.916536364425623 9.290478213872062
Pt 12.273921803885447 7.636553002875737 13.293808275427672
Pt 14.398866070803004 14.272680902308203 8.230255027136089
Pt 16.263319433144396 13.122817453202948 12.216583751758419
Pt 13.361164822479463 12.928282986723174 10.621082968807073
Pt 10.154275602599101 13.205924472221785 9.236367832834445
Pt 9.901987471468049 8.667111130517414 13.7140310531025
Pt 12.306508597995625 10.715697317886333 9.708902869108838
Pt 14.939818044132423 11.946862786085799 14.00531159452822
Pt 12.75309517431559 13.12092030356313 15.03325756944177
Pt 12.147860882731438 12.843758862698403 7.633127491074139
Pt 14.051139552717821 16.694208950054495 9.280224972018416
Pt 14.441114242580074 11.69929239481305 8.171565225632616
Pt 14.04572170801015 14.29857611456065 13.050279368763048
Pt 11.512179644490669 11.528398105947936 16.7624100264933
Pt 10.654962836330002 8.00937591738178 11.283840506766294
Pt 10.206095874702516 13.82933674967923 15.488147202918986
Pt 9.120421997537997 12.264820687772442 17.35635482000257
Pt 8.394543849653768 11.222401825158974 9.803610951399742
Pt 9.321093564340089 8.799207502219463 9.193045045066516
Pt 16.161064977672872 12.802200810424491 9.669039427768363
Pt 12.743185723575994 10.14297636043074 7.057806509895993
Pt 7.597981168066458 9.796381420770027 14.048989334181572
Pt 10.173331949105968 15.343387476673149 11.077142780433087
Pt 14.568713210907466 9.262871645358647 8.995582391013231
Pt 15.105941382901008 10.841938878496913 11.291470947124662
Pt 13.41941234545088 8.717376762240384 11.233454317090551
Pt 8.084396164861795 12.27913853550558 14.920232767046642
Pt 10.622677369651258 8.62083370580136 6.867711645026896
Pt 8.954146704821747 14.095265343966801 13.145649590729464
Pt 9.476059077116766 10.064479299395781 15.915037815878858
Pt 14.240467504520193 9.40645797717491 13.668969294433415
Pt 11.626275621376795 15.041353843637712 13.63247066629574
Pt 7.798848616393773 11.750430680572364 12.359955512657752
