45
Energy = -227.33587618 eV
Pt 7.698944963819433 9.93417556938366 13.713859084179973
Pt 8.234827919823175 7.910657369603027 12.120438294014212
Pt 9.703404338119661 10.911460367211891 14.933889712403289
Pt 7.9476389264786285 12.55034747189342 12.94791883561139
Pt 8.027950443347837 10.399524864046926 11.180539961630112
Pt 10.314029565042977 8.742257566412361 13.484550469866099
Pt 10.70304520054244 7.068228348716781 11.507717729243113
Pt 11.560443164649866 12.107336880356511 16.199956139060536
Pt 8.820015827984518 8.321197322451786 9.59980027804352
Pt 9.675385104688564 13.622205277029993 14.707127808667657
Pt 9.80520075358238 14.301738643007958 12.074880466205647
Pt 12.238724053767069 9.958087459855003 14.804427517787857
Pt 10.257043778476147 11.52855148060604 12.445912640987881
Pt 8.291562788761691 12.935745065228893 10.31872344913565
Pt 12.846523350829218 8.19021862535562 12.754516230560128
Pt 10.685377441062604 6.613243631081504 8.903423714953282
Pt 10.805678558352039 9.56094090996121 10.720210546904498
Pt 13.50858259719984 13.359562851600016 17.451729591804106
Pt 11.536716931879964 14.698655406229904 16.28185521821745
Pt 11.73891353068528 15.25054651959168 13.732589785459774
Pt 8.737071302156338 10.777594179539612 8.678055999495104
Pt 12.20349295264892 12.690493393294505 13.683548234339572
Pt 13.92418726007429 14.2534875509956 15.038166671575121
Pt 10.821297081969847 12.019283374705276 9.932077174472147
Pt 11.944236375544063 15.619917024577273 11.195281050527369
Pt 12.715712779151668 10.694668905578917 12.029210566120346
Pt 10.851359631610617 9.085360729605279 7.99696927221657
Pt 14.191908010880168 11.538881089388525 15.663096645917504
Pt 10.23430407456821 14.59550154293815 9.480812025600917
Pt 12.731967057358231 7.914787112227532 9.908121897050533
Pt 14.645044001383202 10.01319296710105 13.604403732556127
Pt 15.320743883609834 12.617562548054778 13.593252116357519
Pt 14.190987354671012 14.928603753474947 12.531376808915159
Pt 8.893542557148551 13.128906541779935 7.687940121002462
Pt 14.613996776271636 9.39023371335184 10.857705613975439
Pt 12.78806276147865 13.169384265534271 11.187881575366804
Pt 16.351243799028314 13.605650037434339 11.480166241220449
Pt 11.119930029347 11.593975625969275 7.36344964144487
Pt 12.631902894457493 15.65370654809619 8.65952400722296
Pt 12.992635789142811 10.470863145250146 8.924494307348366
Pt 14.69016291459704 14.706129845510572 9.874237196836118
Pt 16.481531576730944 10.972658213782 11.911165638439742
Pt 11.155824644797915 14.232006077482273 7.021784929963808
Pt 14.90136286393382 11.94694685290566 10.01907449473075
Pt 13.12560770128604 13.06333291824097 8.43668733521897
