48
Energy = -242.26088629 eV
Pt 12.002111551278713 16.365568822562526 10.170868657813402
Pt 11.054951045919967 14.479206219574708 8.711439625798155
Pt 7.629361318069109 14.752266416493391 12.735535258968781
Pt 9.721131334472291 15.308435777817245 11.223651571127691
Pt 10.015372569200979 12.495253432799089 7.3279139837741125
Pt 9.886087640977083 15.230074151973623 13.937927585548852
Pt 7.531672688307091 13.411724838197285 10.521484801196111
Pt 13.623837107936298 14.953524472308159 8.553865484399106
Pt 14.10721024669219 14.906847717490187 11.177041326656287
Pt 12.092107431491847 16.119358048755355 12.7214590726962
Pt 6.730392578271995 12.252741791780393 12.814901121141512
Pt 12.715205261829912 12.647112575146387 7.622345397495205
Pt 11.854279848132961 13.632023365557421 11.15585210930457
Pt 8.282837404159151 12.995873122875796 14.731419514517027
Pt 7.843302892283661 11.556370601515656 8.561850255010505
Pt 9.734742032102282 12.669740638034195 12.523272814398851
Pt 10.130487377138584 13.959168919424524 16.234279704364255
Pt 9.886605791201431 12.47547572362603 9.929601397206657
Pt 14.078513848875106 10.369503262536407 8.326964957677353
Pt 8.067954986456272 10.794329853533657 11.067912658027343
Pt 14.357164810954705 12.654762562043977 9.722387105069062
Pt 11.443382382458644 10.332685616714462 7.33670036933047
Pt 14.262229186367378 14.831095692808844 13.744520194802629
Pt 12.077174264329978 15.578894277646132 15.347684692780806
Pt 12.078924176253205 13.441437867938692 13.727575680944122
Pt 9.741261577235493 9.665453325304961 9.313865891492751
Pt 12.046133463462432 11.03404244591121 9.787585222684537
Pt 14.386107388820108 14.683997716524335 16.338727792734986
Pt 14.939441728288125 12.659904643225332 12.28806314243732
Pt 12.530560711821746 8.130818161618631 7.9332934424098225
Pt 8.57921496984535 10.45919690295692 13.624096634069053
Pt 15.069576903270976 10.400861088184534 10.826326723816894
Pt 12.55663079393592 11.343866755095707 12.371318332779131
Pt 10.553505132111344 11.563265266470863 15.08414145991752
Pt 14.931873463177551 12.463189104054893 14.972335165595707
Pt 12.539357345257852 12.874379034679112 16.200794533991214
Pt 9.388737624240523 8.67262404033615 11.724197056196951
Pt 14.509954539347744 8.079108062316129 9.65886829432017
Pt 12.701057798482378 9.016842593299288 11.319386447187542
Pt 11.045781769532823 7.512377574101388 10.013503517422743
Pt 15.267524608321379 10.32962841351815 13.519587417350252
Pt 13.025302318113246 10.587975281405138 14.891874053811549
Pt 11.021424262496096 9.41886785330341 13.65805496019308
Pt 12.956614605025571 5.913254350986729 9.247141054457037
Pt 15.623149894725572 8.158971127406272 12.114246230806366
Pt 13.480816624351313 8.22518435920584 13.720052774280715
Pt 11.196593110428804 7.002377159300017 12.662917620902146
Pt 13.596507390813832 6.484506769905985 11.695334689359601
