42
Energy = -211.17161649 eV
Pt 9.534268476772635 12.247384343255835 7.115345839370677
Pt 9.229286531996339 9.66160680974838 7.474142210100973
Pt 11.753780059436501 13.446446101643874 7.8802459559318265
Pt 9.35412544493158 13.77573723776588 9.269493735992288
Pt 11.05875982935651 15.744224426737114 9.104978912141489
Pt 11.449946536323873 10.83161888743463 8.262891412034831
Pt 8.505920003000162 11.297374742717594 9.41129141602391
Pt 10.846791671022784 8.367829463646494 9.102211132237532
Pt 8.20619452895786 8.616728272799206 9.597263742655528
Pt 13.644429669131332 12.01059445050622 9.193089883979821
Pt 11.476561565178264 12.813145585673926 10.598454631837189
Pt 13.371469463616203 14.627129817541652 9.521573673922376
Pt 8.591233938998204 12.790132204199441 11.564817450546997
Pt 10.116407020652845 14.995389037955954 11.471462346566783
Pt 12.39223260285702 16.550046563571343 11.2001203917925
Pt 13.079460129712894 9.53956972174539 9.898172324759361
Pt 10.626303183454771 10.194426204959443 11.029094486870896
Pt 7.958903828463812 10.2534103100558 11.728012743647291
Pt 9.648186689081461 6.584866307545414 10.601951517622611
Pt 7.533937633417165 7.592850453519479 11.873671439350819
Pt 15.321999422499003 10.736294523307242 10.73268007906569
Pt 9.97043758528681 8.138861232123604 12.742720807415589
Pt 15.135982729390166 13.41191591082826 11.036285614176101
Pt 9.475009229758117 14.064214114122455 13.856688673976779
Pt 12.042871761992942 7.418011625150099 11.262315823926185
Pt 14.985380626833212 16.02007555844932 10.971972555922951
Pt 10.802641510342639 11.832746342984484 12.941901681614526
Pt 14.389220612914439 8.288787680245736 11.857851454353952
Pt 13.16505494681786 11.374010759461115 12.041310159998366
Pt 8.299413030491715 11.68991897133266 13.982416343927289
Pt 16.500209899522183 11.90695763934284 12.768525315600572
Pt 13.445730534020301 14.673532935206865 12.651550237310278
Pt 7.858279686844622 9.066292209106773 14.052170257362416
Pt 12.36201389743389 8.928527038456934 13.41537608816998
Pt 11.358613274255948 15.931452986480187 13.573018840652669
Pt 10.153760749782066 12.244122481124963 15.872332419661767
Pt 14.704243580139014 10.093358296168098 13.88905288397384
Pt 16.716311039655945 9.260043177162657 12.404880763546823
Pt 12.016527665779616 13.60032042925993 14.549928973320744
Pt 14.397017362400286 12.718443000588652 14.014451001542646
Pt 10.262290642577192 9.866456274257894 14.683302797099602
Pt 12.553385904849446 11.071702098978186 15.038409424426208
