41
Energy = -202.18683129 eV
Pt 16.832454859646504 10.666956623403168 9.930009944396668
Pt 15.610596261256541 12.261782834935346 11.506387217430728
Pt 15.23254381055664 11.665379925002398 14.173852869075986
Pt 15.990083626216807 9.203044839569792 14.615652106892426
Pt 16.24108068522159 9.80895056489892 12.22781337268886
Pt 14.38531984957755 10.687895876774279 9.346102456085177
Pt 12.809539145977643 12.032483366967345 7.885335481668628
Pt 14.623723970980988 14.44892649983947 10.512195509181874
Pt 12.170780963129074 14.900162845948683 11.492508632229436
Pt 12.802535531133163 12.512706352611342 10.576605280762735
Pt 13.958556930062375 9.102759061827433 11.329097094967436
Pt 12.674514115202605 14.502889433439046 8.78913914847694
Pt 13.64472242132292 9.87314535918801 15.299685710518165
Pt 13.100831216202899 11.067793300593026 12.822468869011262
Pt 12.902722325443266 12.562422256127046 15.0562518022906
Pt 11.987224028280004 9.589038911240783 9.688717455907017
Pt 13.943647199670284 13.653873789827832 12.969509810179703
Pt 12.143835319730119 8.694806901683112 13.139236482156736
Pt 10.879512643892511 11.020228105650745 11.521635262221412
Pt 10.393193529094626 11.579145241804865 8.561412777082877
Pt 10.907500493555254 13.64032470757658 7.035925715038636
Pt 9.477099839402578 11.996051848623651 13.48167863436384
Pt 13.00028685694708 8.87999661649793 17.59702821882843
Pt 12.083387835329125 11.219732208873566 17.158690004725084
Pt 10.72190049377183 16.0079286157773 9.66309501582554
Pt 7.871737652204411 11.62426339769355 9.157133641625505
Pt 10.344580814870126 6.929868252985864 13.722553399618384
Pt 11.199033072102555 14.095962484705268 13.719717764301214
Pt 11.178598607147633 16.186496945138515 7.153811130616971
Pt 9.294328290465819 9.409174288295636 9.487244070592853
Pt 8.81127725133576 13.136356545335731 11.229761038961124
Pt 11.661056599018805 7.983896148161045 15.652471023806964
Pt 10.455531472291517 8.001647809485862 11.281682517318156
Pt 8.20626961795823 10.611769441456572 11.527537848576946
Pt 9.70485241293063 15.36260111819873 11.95872910599418
Pt 10.43072203309029 12.800924554171509 15.843587368381534
Pt 9.005419132126226 13.929737797711054 8.711086099590938
Pt 10.570374491500274 10.257480777736003 15.380507705197367
Pt 7.6522023038726985 15.391349795949855 10.330416901333637
Pt 8.708660291925966 16.395742356666933 8.159385424087164
Pt 9.408650871721665 9.325191063792946 13.325228954157444
