42
Energy = -211.14957296 eV
Pt 14.718559036766822 9.702122171086756 8.609441433232197
Pt 14.324479862141832 8.763340664937514 11.14619016936404
Pt 15.245275767497178 12.206180228350558 8.350982123527379
Pt 15.111414795029846 11.223292681821071 10.829060682033866
Pt 14.099766853180611 7.174988532685147 9.002196822069275
Pt 14.575073056810279 13.039833754989923 12.651518154074198
Pt 13.083251137459314 6.490670401328235 11.386172843072687
Pt 12.442592331609536 8.768309223252196 7.618406789939844
Pt 15.514211887837398 13.859967818720923 10.32266327663958
Pt 11.99545695736 9.332505661053073 10.105695308572312
Pt 12.953582666376708 8.098681749014672 13.448666541542668
Pt 13.00937986041353 12.468593371474427 14.672235018684113
Pt 12.799497168616478 11.477674200802177 7.72799870593763
Pt 14.160248940008012 10.470314527324918 13.140904349689553
Pt 13.496335246700713 14.976375539005245 14.082911158559046
Pt 11.40920918973011 6.957952050455843 9.34083613657645
Pt 13.607782564884188 15.242151248943763 11.410631267113313
Pt 13.191424895164134 13.932249522420694 9.05295687508666
Pt 10.801535819633779 7.51685640326163 11.873827756975572
Pt 12.600459692311585 11.780245245969324 10.30579536584116
Pt 12.578895255788746 9.957812363598785 15.237275766098353
Pt 10.43672667843763 10.322199002893067 7.938117180400917
Pt 11.533516730699422 10.485057293079313 12.392897540386572
Pt 11.626205643795977 16.28819445919163 12.74019793700583
Pt 10.534795551805468 11.605227038670469 14.728633604985685
Pt 11.10443126006995 14.87377533300181 10.45227089623899
Pt 11.797445324851973 13.178252109148255 12.26885076429156
Pt 10.900736929499207 14.26592763491933 14.408951142172725
Pt 10.69863123092558 12.836659342810686 8.838362954733986
Pt 10.413526448624749 8.90440513529299 14.154586765255681
Pt 8.485434179380027 8.243144704630291 12.493520059418929
Pt 9.361464213182147 8.959480511095197 9.972295267893378
Pt 9.546695326286072 11.933309671623894 11.620887256548965
Pt 9.301366288023972 15.314087142274627 12.422500001096342
Pt 8.309725693677086 10.458369834329845 13.90535956641716
Pt 8.601780479755167 13.107448713453822 13.812745291533238
Pt 8.64083139533278 13.917356019432965 10.210909812779699
Pt 8.48497231955744 11.3954954220824 9.125672659163426
Pt 7.463475434246616 10.27142843689406 11.325079486310234
Pt 6.927140185055585 14.426350401893764 12.167084084499743
Pt 6.372040183972243 11.99047306039985 12.99445949355489
Pt 6.423507813969524 12.466123668854737 10.393133987151419
