49
Energy = -248.70849609 eV
Pt 14.35485595912651 12.13266526685976 15.781644883681254
Pt 15.646797953805512 10.41912269585609 13.76263246820043
Pt 16.065709095664243 13.132832642258832 11.04582404178428
Pt 14.573596644715282 9.494305315519231 16.216658592686148
Pt 15.570593816689135 13.025146468884964 13.625609523857298
Pt 12.477924729969775 10.829732178425454 17.153090501328855
Pt 15.633049825824658 10.347115449980707 11.097365350379341
Pt 14.97528269565721 15.245742751921384 12.329451886971386
Pt 11.759062363949075 13.144100625993472 16.097632462640348
Pt 14.839306971682868 12.008323010472552 9.056264906671771
Pt 14.272983637158566 8.13650103797748 13.997669260690413
Pt 13.071642086008021 10.608261783823282 14.074761112214349
Pt 13.823711692806244 11.990220558260415 11.897386673668326
Pt 13.544345535303869 14.379109276293365 14.550759909916621
Pt 13.354581636238638 16.863171445065987 10.815535696055402
Pt 12.081903904114967 8.635474934507334 15.473995472809127
Pt 14.236789277113417 7.947507218305688 11.427499217308235
Pt 12.920363353889929 16.67225734582798 13.454316136245696
Pt 14.24566457274613 14.636619027030594 9.690582737036255
Pt 10.552398338520693 10.852343428771333 15.35614233814644
Pt 13.977065601729901 9.396454638072417 9.248047100273011
Pt 12.364089406735369 9.7665760794088 11.786478330458833
Pt 11.850636765024925 18.573976939177335 12.081265369586678
Pt 11.590803172042078 12.670751170419155 13.496504892189257
Pt 12.667904692426854 14.249200268120852 11.729449465605017
Pt 11.907043623571704 7.51522268390763 12.89956727240199
Pt 10.923980157495663 15.131035583951586 14.34265178926449
Pt 10.745525785226691 16.285435192161813 11.862637630305164
Pt 11.756333795595477 7.872329837772211 10.187794461445774
Pt 10.128962300353228 10.761626913590835 12.536234145440996
Pt 11.636325521349157 15.298319371408887 9.410731398556521
Pt 12.622383909328489 13.269842280676503 8.041074605481803
Pt 9.285965045570789 13.098690346003893 14.862040446411418
Pt 12.25577975252095 11.461216821820386 9.888206102945885
Pt 11.904661513769076 8.763344655434931 7.7210523464969745
Pt 13.400477993631672 10.887630361303 7.1470598120293
Pt 9.798835903430803 8.653175379677275 14.185748296931916
Pt 10.538850716588612 12.924812975656863 11.104065324928717
Pt 8.88854862692471 14.415747001009512 12.622089405077736
Pt 9.532557862322808 8.295438395447562 11.616647158939756
Pt 9.041701829585222 15.385379530582505 10.167302618565174
Pt 7.550717876285695 9.362757565978539 13.131172923304861
Pt 9.95886566142082 13.47679249713882 8.579757144042008
Pt 10.851357215643882 11.182869478934618 7.681112876095272
Pt 9.768485421798152 9.24755795754628 9.177021580998007
Pt 7.914699036134542 10.313185063129929 10.722354437560345
Pt 7.859628213649113 11.945835829817664 12.953731376009536
Pt 8.006538580639873 12.950006383769338 10.485624457163748
Pt 8.358702198702606 11.35340730373597 8.405929492101174
