44
Energy = -222.84885898 eV
Pt 13.461980553732818 11.753966051472895 14.480665055758342
Pt 11.206241022099535 12.554094727247762 15.72718976876919
Pt 11.435093176428044 8.01107805549136 13.821656819892537
Pt 13.974790976770763 9.15460114511768 13.984563816021053
Pt 10.02295774897594 10.74531563008622 17.119142933533958
Pt 9.477542252641081 9.322335263193432 15.038727722037667
Pt 13.329458352340625 7.100817251579487 12.237694717663524
Pt 12.066329291133666 9.845284834704092 15.665022484962435
Pt 14.745285109146108 13.690364252987786 13.187579258521406
Pt 15.572873738993133 10.989534774138653 12.994335539841892
Pt 10.762336088114267 6.916853609372943 11.545047521919823
Pt 12.402063582734103 14.207322458275685 14.160640994841804
Pt 9.691929472925422 14.146809369650407 14.070476899499287
Pt 9.14452185493354 8.674166121928083 12.535012868951858
Pt 11.422621567497313 13.105871448976702 12.029907682787082
Pt 16.9958727922791 12.930635826835069 11.996404452358592
Pt 12.334951681526778 9.959339132431507 12.192022958762635
Pt 8.618680466274249 12.008659417156727 15.168212054688794
Pt 14.705056276394592 9.068944425755275 11.234214232168688
Pt 12.344325996889022 8.380582580373808 10.049438173495506
Pt 7.390175426359605 10.213105202417761 13.607776617352696
Pt 15.174202839737749 14.062953709722013 10.526288050792727
Pt 8.158109172419385 12.494277952205403 12.567481375484622
Pt 15.921831321065138 11.233681729014476 10.27910905861993
Pt 13.119574020548248 15.200802395992556 11.680249933558738
Pt 13.67113980694393 11.985000210283175 11.334494395946026
Pt 10.945194500242074 16.09833565974052 12.893038232871326
Pt 10.538652103079148 11.182261192958594 13.532660413430136
Pt 10.332262226802493 10.973168913950387 10.899178062746435
Pt 9.575528934592823 8.553489760569441 9.890058617849187
Pt 11.118095598798849 10.08878584570014 8.425262888091968
Pt 11.884329845428965 12.640626190573563 9.583570358301793
Pt 9.267482991402517 14.599401347346907 11.420172179748716
Pt 13.720666357117244 10.370482383745644 9.04151761883971
Pt 7.660818739319512 10.29100132395878 10.995084745496115
Pt 14.780992369763538 12.700953744924428 8.327436469278322
Pt 13.14020154620175 14.772764180625737 8.969912217141886
Pt 11.22327555672772 16.23547276604981 10.27124952129388
Pt 8.43374557020282 12.605778466638638 9.918626485388906
Pt 12.571514429997222 11.930056647945474 7.1929513767755
Pt 8.423628102947344 10.401738524887623 8.449588359362924
Pt 11.569471527196393 14.287964687506955 6.8350253873261995
Pt 10.030510977382624 14.443135651961741 8.926704323547145
Pt 9.879929595393508 12.314430696006195 7.440852915780901
