49
Energy = -249.59168069 eV
Pt 15.81415334725778 10.071568789189868 12.291941755182709
Pt 15.32884834059878 10.41045539685872 9.756055847905003
Pt 14.623603367905273 8.012004008463943 11.025111506166322
Pt 15.418973732587936 12.528500607029486 11.40774985588616
Pt 14.719969239340351 8.280514486659623 8.339851504322251
Pt 13.96670683108499 10.60633536261326 7.484815739731336
Pt 14.556675827223993 12.839442451946779 8.896011674963061
Pt 13.768282429783946 8.92508006955962 13.455319261789603
Pt 13.0872357055082 10.08592250151743 11.148533447138425
Pt 14.217927362584065 11.588809230819109 13.67855542007088
Pt 12.776761310693587 6.881328327476574 9.490291882263891
Pt 12.385311878995408 7.011755623923411 12.091887545859882
Pt 14.381555184337266 14.866349647874854 10.635934082162027
Pt 13.585987842047055 14.217880310361931 13.09196728172832
Pt 12.319259070744708 8.456151839807601 7.262654766786423
Pt 12.966212025543067 12.893587215955206 6.758534423133159
Pt 12.64089782012892 12.979073692617293 15.186075462015513
Pt 12.0342418968338 11.463355320639737 9.071632554923971
Pt 12.802427473475886 12.634690622351718 11.2098978307661
Pt 11.31819682174245 8.990180397247487 9.558826777810188
Pt 12.087764200612643 10.417575632280656 14.895267896770632
Pt 11.17660264615224 10.813784142190874 6.705973149884861
Pt 10.712847721788094 9.352565404596845 12.11347678348081
Pt 12.502017162738598 14.552028766655685 8.790841459235205
Pt 10.11859049947733 7.022563153588247 10.764897751302696
Pt 11.010495765770221 11.872631713979542 12.902796430157156
Pt 8.757554690795683 11.183641282087553 7.709313169972945
Pt 11.487363335944153 7.957967984857678 14.314113459891844
Pt 11.826691910936075 15.251860504358293 11.315494334007042
Pt 9.618565270321694 8.72223912157732 7.614257588002362
Pt 9.464812639973127 9.485158328309812 14.672609325775817
Pt 10.152997591143011 12.232225624199524 15.381966648445301
Pt 10.037334364590507 15.398604956173967 9.25841044315037
Pt 10.340767170901188 12.921024161661823 10.48674892167178
Pt 8.000245901374333 8.43453429267343 9.781300684789823
Pt 10.883336695814162 14.329612570943038 13.72037993186359
Pt 9.361331980801584 10.55636306351728 10.141618555490128
Pt 10.491241064221883 13.264587494204104 7.626238850396737
Pt 8.411880102423105 8.067300776191377 12.449875480184023
Pt 8.582110034452777 11.024279486056203 12.585209845966476
Pt 6.837694384703881 11.20143142920462 9.48587795867953
Pt 9.22599172284123 14.891438806966418 11.744098652005201
Pt 7.755201921622788 11.380866564962798 15.247998511254647
Pt 6.754128891040617 9.2043504508653 14.174651770131565
Pt 7.332216045682445 13.01467779124486 11.37056443189573
Pt 8.204957032601918 13.448939546994325 8.955223418177962
Pt 8.268465095950528 13.533149525326175 13.784029811186377
Pt 6.5156972936111694 9.76042389374778 11.604958183974402
Pt 6.0405984990678006 11.773857055929064 13.283680679355001
