40
Energy = -200.58809505 eV
Pt 14.334287695589023 11.385258207664666 10.140159846012804
Pt 14.734083766798516 12.725570355644523 12.311371774724023
Pt 13.98594922115102 10.05471246466329 7.938756357309886
Pt 13.783811307948504 8.833484917667512 10.279576083815138
Pt 14.096370506113406 14.01640652929038 10.02358311968756
Pt 14.46918471259167 10.03519190725465 12.548119736377398
Pt 13.273670893301574 12.637096709194283 7.907001492774826
Pt 12.829544856185413 12.457562352898952 14.148231629833552
Pt 12.573112837623393 7.950797266808409 12.570250664378628
Pt 12.339529945420034 13.867083116910031 11.867565619137808
Pt 11.616548256917518 11.377842751502216 9.610328138000598
Pt 12.014944285877839 8.374606991183288 8.242911733993898
Pt 12.36015750453543 6.590018858836114 10.277819458682746
Pt 12.106348183198843 10.987054004424357 12.137171272568889
Pt 11.539189583216668 10.686638065480356 7.062007605725954
Pt 11.000014771489067 9.121486458370162 10.713847934408324
Pt 11.50051034357047 14.076997198978772 9.386165835024618
Pt 12.559424143142001 9.796675703080929 14.429955229463479
Pt 10.635091631790226 13.91755326385339 13.825330129614933
Pt 10.824797906687575 13.249294739662403 6.983438061898052
Pt 10.169003171884809 6.869957582861325 11.879167554961906
Pt 10.019762657049512 7.008901770319844 9.188968797649082
Pt 10.220237744433213 8.86809359290087 13.634242644265095
Pt 10.340389412359597 11.401549200408807 14.488116417689673
Pt 9.600922380595563 8.90123959433598 7.280261278654009
Pt 9.20876526496154 10.354912834052744 9.457378728349108
Pt 8.943526335452525 11.476449985577146 6.863065806245575
Pt 7.843032444651607 6.5527981265992326 10.601443263604722
Pt 9.028001030334684 13.231774123043676 8.885058042550563
Pt 9.78868929643259 13.700445806084153 11.343582015995583
Pt 9.561981422901122 11.022043620951532 11.907609705241649
Pt 7.962644678253914 8.446886360360201 12.297060926032731
Pt 7.692798897949764 7.2324622801158265 8.06292685151507
Pt 7.952629415060788 10.213975096612801 14.183541262761954
Pt 7.080365369727621 9.67923728379147 7.202979860116988
Pt 8.236818016971613 12.766517921709905 13.334731089767503
Pt 6.885375839826177 11.526885336459252 9.03927712432011
Pt 6.999558022049686 9.000196326270165 9.86682642138557
Pt 7.2570776336146725 13.346765480010824 10.856405173047511
Pt 6.937167008668625 10.875968190150575 11.731010038878514
