47
Energy = -237.16152545 eV
Pt 14.228132697898142 8.238590535683398 10.038113203894012
Pt 15.883298237138307 9.828064396485457 11.256988555156282
Pt 13.450062932151564 12.80600565790733 14.791500960840976
Pt 15.288687206734059 11.685736346716654 13.032765020220765
Pt 15.39892791339563 11.21061584435223 15.644757780224795
Pt 15.435407001632328 10.235568966829451 8.723890653611589
Pt 13.064651065426775 10.902316969328337 8.10110478061157
Pt 14.89122270427841 12.736470570090324 7.904740497898006
Pt 14.488503189860252 8.31498174523297 12.776094850411045
Pt 13.688914144104531 14.331986025302445 9.73272750780911
Pt 13.546852742102512 13.531309198654192 12.243265000422543
Pt 14.206943743921082 8.947764480592896 15.296422339315498
Pt 12.904086325541632 10.936839500031125 16.60773920230938
Pt 12.48234840315513 9.866561215173432 11.035276713428047
Pt 12.312798750847982 13.427100317770853 7.603285824816056
Pt 10.289966442682354 7.9214673373288 13.22672685053219
Pt 10.482938205490285 11.414560407983993 7.795629750485744
Pt 12.596408593730683 7.167568150656751 14.229979975960187
Pt 11.707975431084876 15.131411320895513 11.295940296863705
Pt 10.859216825679178 11.976164033613735 15.282195812927942
Pt 11.427603140164429 14.139119980968585 13.746010084934978
Pt 13.120650608894291 10.493830077134735 13.55858558026418
Pt 14.958030176824357 12.184094664994971 10.507388649380621
Pt 9.445872787356446 15.435471955074673 12.642382578323735
Pt 11.385146589017388 9.357688338603424 15.09884865156328
Pt 9.561420316454646 16.103314703531524 9.971092508272928
Pt 12.237065888126414 6.730426066704384 9.185294840116137
Pt 12.311684412678446 7.203093470558537 11.6702035781029
Pt 11.728739214342175 15.777643911886095 8.680964964601323
Pt 11.155596120160116 11.741251558937964 12.431073869090078
Pt 8.265857376281067 8.865810860634868 11.862546527114253
Pt 9.498379324234419 13.272641282835744 10.947686887706862
Pt 7.387065646073682 16.465359869820208 11.279354781267939
Pt 8.982755045538186 12.974646764859292 13.752834321733184
Pt 9.306037872056542 10.313644245572752 13.793125678108295
Pt 9.830873456314427 13.98529796232451 8.262639779808774
Pt 9.866001191158068 10.545268176497336 10.531699727427297
Pt 10.009875325734983 7.41080801102906 10.500662668371014
Pt 11.856072027228441 12.398445075453557 10.040160166568409
Pt 11.364124592634607 9.068447092410237 8.708225093428917
Pt 7.466750087371532 14.481284336311624 9.510768399509695
Pt 7.6089517950637005 11.44410734404333 12.070725106587163
Pt 7.167475810240943 13.975844010282145 12.086014610177196
Pt 8.07798872545191 12.090111839879446 8.817821147892886
Pt 6.754657608227756 10.130411612622442 10.010367399837069
Pt 8.770503230139921 9.529601052585575 8.401443108000233
Pt 7.581068296105682 7.604841934543842 9.646522934801158
