40
Energy = -199.38224444 eV
Pt 15.333735334917531 10.21029059394441 12.84412929452795
Pt 14.36275727551284 8.378352473073283 14.399256934303958
Pt 14.823929659758896 10.424794504400767 10.278700967123925
Pt 13.746685541672017 8.375889485238464 11.685996257150515
Pt 15.12933105570534 12.306077224201244 14.501924350214267
Pt 14.138193566053138 10.567304604750705 7.811986267303569
Pt 11.739091387548516 8.978504557248462 16.090787190215273
Pt 12.85389431565462 8.671384746448282 9.250796695182967
Pt 14.641438220619353 12.565948137613251 11.898925737149648
Pt 13.368859968031616 10.703356809990824 15.2792782102064
Pt 13.845402827648464 12.850275811575091 9.377637797038512
Pt 11.938917220823255 9.426711756655207 6.887893098017956
Pt 12.747628759327172 10.682117428928027 12.734971166688737
Pt 13.449891538803582 14.044737233596187 13.797341657285369
Pt 11.94249386250039 8.18336054856213 13.650086561005644
Pt 12.166298328869214 11.025781837568458 10.198974764925666
Pt 11.140694496701105 7.9601759964548915 11.115656170546016
Pt 13.101532352010482 14.67637737349828 11.112655958388666
Pt 11.489247358577106 12.37504891989215 14.502099540079616
Pt 9.976959721080759 10.036226607901787 14.644881402688
Pt 12.119580348610516 16.092770095679658 13.124277398803324
Pt 10.143699063567603 14.480115064434417 13.513083321390933
Pt 9.43496934827591 7.783915463051358 13.194021771142726
Pt 10.27625840622793 10.38027534819097 11.917035086014108
Pt 11.29729379362581 12.910138202182583 11.795445182809534
Pt 10.190154087608171 8.90573350379498 8.83168060108441
Pt 11.967384213061916 11.99416949901343 7.622331297240196
Pt 7.750416450329556 9.821700624964896 13.296805431178868
Pt 10.433494597553997 15.536361414334834 11.067821687240802
Pt 8.961578923338278 12.194011729344531 13.464490613236318
Pt 8.511443224485939 8.798250673451125 10.872642242402497
Pt 9.765195765719227 11.94887496944747 9.789945618797086
Pt 11.466698893751039 14.093117339009904 9.142216043272791
Pt 9.71144005573732 10.649710668331306 6.83283663016728
Pt 7.475487249785844 11.395309153519214 11.286640405824777
Pt 8.383110788200094 13.964482276822572 11.531642256285357
Pt 7.945944367131201 10.311404836162566 8.86047268351339
Pt 9.617922970887506 13.251406936507754 7.56556649715733
Pt 7.4850702033211 13.09145229522697 9.285514685826419
Pt 7.456166063319011 11.963887134422848 6.867941912701
