47
Energy = -238.17364454 eV
Pt 6.867329062186977 12.861482154325923 10.566094134969886
Pt 10.959856018908674 16.02763086856221 11.8398268440752
Pt 7.799143741653414 12.906430430858515 13.106383201251141
Pt 12.062915075387439 13.145033978048437 14.715129919567493
Pt 8.273679076944864 13.972592594829704 8.71714997075543
Pt 8.754351666094673 14.662351865887182 11.272784896006405
Pt 9.966443151304537 14.29907580677824 13.627060341715676
Pt 10.233059564188931 15.814289415940328 9.364189288707726
Pt 9.483669131557138 15.292998764886068 6.954846413709264
Pt 13.063461026190534 14.624862995945815 12.681380315531236
Pt 6.9353987815649285 10.181007947879118 10.862853666746654
Pt 11.969169357114582 10.617786655981027 15.489270627915117
Pt 12.616100973080915 14.842930306826084 10.087630576081585
Pt 7.748722462876484 10.320218347284374 13.498596811568671
Pt 9.850833689723048 9.231035428767994 15.039393618085173
Pt 11.125690292389987 13.090535338548298 11.712152108400428
Pt 7.962239713779386 11.287627858315119 8.6262062933052
Pt 14.40297534901303 12.58509614101664 13.613886269495104
Pt 9.67421099042926 11.902162504685675 14.704273918420132
Pt 7.791314467393589 7.82729271374273 14.386597741536608
Pt 9.07130852578601 11.608452931124118 11.29387279724215
Pt 10.39177601339798 12.574094395789091 9.087998956048551
Pt 11.716439025113127 14.256769146553918 7.647223923866077
Pt 8.350200121881745 8.615817183811147 9.282377494880498
Pt 10.167617836098854 9.61809146845056 12.460771779340766
Pt 12.259134773861552 11.135143564576206 12.932393216068883
Pt 9.830910087754948 9.948794866089585 7.308998637440205
Pt 8.05093632124306 8.032020895438878 11.817937997751958
Pt 11.894824901499787 11.612139916627537 7.205886753910699
Pt 14.55686809156723 13.226369402619271 11.054437707435815
Pt 13.888284264154263 13.13262444583901 8.50393431934688
Pt 12.676384937161343 11.488135652251287 10.267305009130448
Pt 10.501416443327228 9.950913122896162 9.834053492420214
Pt 12.416184539500156 9.044293629348186 11.294497863438952
Pt 10.054925068822458 6.986105995670214 13.361405451206593
Pt 15.057529431245657 10.674181279989922 11.857106506634544
Pt 14.306418819646924 9.964412794670743 14.250784713663569
Pt 12.2636697156639 8.305319190249778 14.165143500858068
Pt 10.200581436336012 7.035334465253453 10.66793204149363
Pt 10.446843771912249 7.4540368847141645 8.12313600649495
Pt 14.516003319857333 8.089535637786536 12.371395270119626
Pt 12.361574252683484 9.100852828951632 7.917522870855701
Pt 14.3218008810723 10.680131286841565 7.6291350281951225
Pt 15.843187344905859 11.522147812639323 9.527913156846276
Pt 14.538664610760998 9.085449888944197 9.730367837803618
Pt 12.668355827296784 7.048994436619712 9.591754259424546
Pt 12.329985815153927 6.51624670957483 12.203451703416212
