49
Energy = -250.55633894 eV
Pt 14.756492307405498 14.214778158602789 10.629626780522758
Pt 15.4114750738756 11.739980853982248 10.915188915780673
Pt 15.616847443104945 10.393901793127469 8.624883993622232
Pt 14.119338179006357 16.73552069314901 10.300096367798021
Pt 14.920277804955058 10.432140008068428 13.28956146670966
Pt 14.516416378986602 12.748500773192958 8.491800312524385
Pt 15.032877203736916 9.073895552017394 10.767589565802657
Pt 14.730073280073963 13.084440192391403 13.056796726455449
Pt 13.206729894404624 15.045026117134706 8.469498640677115
Pt 13.877291217741618 15.648222131006621 12.693364551073108
Pt 13.841104218369836 11.793338315252251 15.262002603110624
Pt 14.237816692330213 7.864058507571799 12.897640852007683
Pt 13.808388884366265 10.953514530793898 6.697398068471935
Pt 13.263003301999381 9.324671838233698 8.680403452864889
Pt 13.067226049735098 14.419448796326051 14.802951626184065
Pt 13.035141238119785 10.840028722779993 11.571048315326694
Pt 12.226714953048452 13.048359614061848 7.053675821611191
Pt 12.130598523034648 11.748020666723777 9.346171452753952
Pt 12.330662953584808 13.383280078031659 11.312343411659526
Pt 11.714143121381735 15.811713811924244 10.513878327800287
Pt 13.00694922000697 9.284974930531071 14.710084497741969
Pt 12.213859560514551 13.114900952608076 16.87931391099943
Pt 12.63063744853553 7.921613407404051 10.802648048467322
Pt 11.841174496796716 12.37196451444705 13.754155399886699
Pt 10.633364356809118 14.162573252468583 8.836684416940695
Pt 11.198247806916482 10.375585811539269 7.301923738666729
Pt 9.611923231462967 12.465407636515838 7.176191913515338
Pt 11.543471011471759 10.6256382605219 16.381683077246905
Pt 10.91975672401674 8.253462575083352 8.895803934990122
Pt 10.262082534100617 10.313104391983801 10.392417933354972
Pt 10.905013888445785 10.13819710318874 12.910919985680268
Pt 11.63064067389768 7.578920956344586 13.20187704008572
Pt 8.669362962042781 10.342037219735644 8.383122991822653
Pt 10.016232748203102 12.697693891092745 15.619386418457958
Pt 11.309092541772191 15.329815325965466 13.0427060126283
Pt 9.985525190199564 12.398923783204586 11.946996727943942
Pt 9.365297044306928 14.813682500868689 11.150937969720855
Pt 8.52472522895546 12.792867269070488 9.587606673791724
Pt 10.70314627454171 8.286734984017688 15.580349563695522
Pt 10.118727876245108 7.044305386205609 11.098289212202397
Pt 8.442658300094559 7.7596777871440334 8.606672960903424
Pt 9.151072142964495 10.236712376189011 15.043123503111412
Pt 6.837758189490145 10.959481019614309 10.378338274823347
Pt 7.611979409197829 12.30948899304329 14.692673677458579
Pt 9.069552921167988 8.190188658060736 13.340947490373459
Pt 7.41835234893498 12.997004040688525 12.018847981101912
Pt 9.084407850549601 14.242698811452616 13.744111391145532
Pt 7.7911460653400475 10.475254810570895 12.811267839712617
Pt 8.18099887827288 8.788731511387219 10.926551323655518
