48
Energy = -242.69526165 eV
Pt 10.751360908948193 6.220173522339366 11.571128312160965
Pt 14.146200295018422 8.266265315550276 10.341882957948505
Pt 11.782278094559656 7.485254476257332 9.463525057529578
Pt 13.901158310393441 7.392517721125625 12.852536460234985
Pt 12.942952401433867 9.344871240934738 7.941773438689823
Pt 11.366835580483022 7.094883773472373 14.140647904481321
Pt 8.999582886093792 7.709562351552409 12.874791783887407
Pt 9.289735574604983 8.01233936918682 10.178865078670867
Pt 11.73069756314677 8.556516646213334 12.10482439299824
Pt 14.823216267478362 9.80496505158599 12.512740143974836
Pt 15.034786929510187 10.584149802687328 9.481826006217124
Pt 10.227222110812427 8.75698871840748 7.791906093722702
Pt 10.167009489484073 9.398653120848987 14.895075581470667
Pt 12.372053074899654 10.229431184271425 10.24574094588155
Pt 12.877578909084866 9.254608184706541 14.609719706639693
Pt 15.466791765334309 13.145057189200692 9.19543783951351
Pt 13.3620195424187 12.073908928752074 7.9370654572445325
Pt 12.166284979570744 11.128888473751388 12.780963967170214
Pt 11.661066524536427 11.597330835060339 15.304111539694336
Pt 8.35078352736974 10.601962776710815 7.441211088335769
Pt 7.597592126663929 9.6066033281862 14.107630945631604
Pt 7.38311008067817 9.331240049117035 11.447128180573065
Pt 9.760656006324451 10.240782308431811 12.372232366804726
Pt 10.956644891701792 11.218829316070423 7.33657852474362
Pt 13.673427575156854 12.36238414416084 11.038611517535658
Pt 14.21808717217348 11.519493361362947 14.411071051700686
Pt 10.217488961137855 12.789876251645392 12.154271607661634
Pt 11.390437222211865 12.62713603920355 9.870918201172275
Pt 9.035161426229472 11.792236308333269 14.682043595178003
Pt 9.795682421457242 10.53160593368553 9.85414715075681
Pt 11.429198255828464 13.827595207281012 7.299654797485515
Pt 7.446356607459509 11.765786013525474 12.421337557231158
Pt 16.088230541900586 11.921855567571965 11.683663331274914
Pt 7.41374965065368 11.424606780935155 9.774771067407348
Pt 15.57811296248032 13.54093051523507 13.658743092922258
Pt 9.111541633422814 12.986222297483874 8.383757362666913
Pt 12.485642655506037 13.984933461118544 12.692453228854248
Pt 10.453551899898534 13.971583697903542 14.741859283903885
Pt 13.20732354685518 14.597224659237526 9.093895443907922
Pt 9.863204200427212 15.437198385617018 12.088380494002523
Pt 14.893855982708972 14.679409132127164 11.20209442467053
Pt 8.104118322724677 14.068166046545757 13.528444046618535
Pt 10.4296954595341 14.9861415210506 9.519787462146375
Pt 13.133611667970342 13.80478915692364 15.156010798578361
Pt 8.22666224841054 13.796324799945387 10.812773178613744
Pt 14.224864701856776 15.78110495229274 13.444241547082216
Pt 11.635540775977896 16.154549703931988 13.885312679743217
Pt 12.333400925738749 16.010427779951502 11.16979168247598
