46
Energy = -233.41319132 eV
Pt 14.796843639107808 12.892754741228789 7.656234123699065
Pt 14.21503551991218 13.640367043697033 10.184076927226778
Pt 15.371496375998037 11.334553766531029 9.737964570030742
Pt 12.464142565889341 14.163208872588909 8.058094897235359
Pt 14.031744049656329 10.324006096091555 7.4812040154247885
Pt 15.470755669042884 8.800470459820124 9.027939663996998
Pt 12.442351946659063 15.610675587828142 10.296332591539691
Pt 14.485570153611643 11.912935023686801 12.162369977296759
Pt 12.580888090107885 12.169973244438154 6.336731837794376
Pt 15.393037643359225 9.411052234743366 11.582361406173522
Pt 11.052057603609049 12.780898945880326 11.010176914948989
Pt 12.88198542978579 14.118642293071224 12.426473472743917
Pt 12.865542162686332 8.299256185091092 8.825800831129232
Pt 12.624752286718289 11.765110839418817 9.25662424381491
Pt 14.578463460041082 10.108397281760807 14.013874495765231
Pt 11.332397104412946 10.067415272811976 7.509998584758334
Pt 10.211147495182072 14.681521797510424 9.236959879204052
Pt 14.382057415167761 7.082386878686253 10.70959755557893
Pt 13.173182645406735 12.400466807890915 14.389043845742565
Pt 10.396189621081655 15.121089317520344 11.9530757141091
Pt 11.562644937928024 11.083256282605653 12.911452604470005
Pt 10.284949416536703 12.568692533920679 7.611933772826039
Pt 12.868838145906128 9.849917346281764 10.99547333770052
Pt 10.736772948149977 13.422091120133487 14.01926365203264
Pt 8.070765873229304 15.226943089560903 10.627182186291616
Pt 13.300180139982254 8.0491659879563 12.892180901446778
Pt 10.502738438070516 10.368558256672674 10.120563190498247
Pt 12.164281638365708 9.446941992513 14.784717368016066
Pt 8.684550358504563 11.915187395212573 11.375725230750554
Pt 8.142343307446398 13.050362243213414 9.056562225564868
Pt 11.77189103190842 7.0708516968142385 10.93932647842912
Pt 8.286410784336603 13.891397427269844 12.951657158672859
Pt 8.708409622982412 10.565946587483058 8.257075430260596
Pt 10.220421775892218 8.108177046147585 8.953102487853883
Pt 9.587767511617091 9.231423712784675 15.078849103982144
Pt 10.771731468195897 7.5362754640006 13.384284969522625
Pt 9.17527970071622 7.317121966729673 11.240782191341754
Pt 6.26689094363563 13.38079827308294 10.966798051352086
Pt 8.849640595228504 11.600768603708474 14.194678913896512
Pt 9.509761697989612 9.664012496031583 12.400563758896476
Pt 6.688182824580785 10.844042330062232 10.017833815536152
Pt 7.626402937648836 8.443127026443266 9.419505636669513
Pt 6.463247618144461 11.523369246393928 12.706939929606879
Pt 8.150371315293098 7.38466091883642 13.7309714269518
Pt 7.007778387482309 9.684996833260655 14.447451034279398
Pt 7.0029821782449995 8.937225400522932 11.914905936436773
