40
Energy = -199.15041668 eV
Pt 14.824962652572845 9.506195407207054 8.110654831545597
Pt 15.46064601196543 8.126819162424946 10.224129649607665
Pt 12.301487082612798 9.894284517383472 7.558863203956733
Pt 11.80456527030116 12.374443024832916 6.77749839900394
Pt 13.994430155425972 12.009128517420363 8.330631232634227
Pt 14.880497895137998 10.70260488985971 10.487104576390774
Pt 12.866602670536537 8.420344530476855 9.744966692603851
Pt 10.475532325661389 8.493237614269557 8.771447739034034
Pt 15.436706652487228 9.220299663780933 12.634246151122793
Pt 9.965196973661113 11.011066345757362 8.183723756054944
Pt 12.125344718591249 13.716959921931583 9.02376789372503
Pt 13.686060023904963 7.336565326140131 11.994900994848003
Pt 12.163009526331946 11.036961410608189 9.976846555846917
Pt 11.125621600945355 7.888111168422279 11.75959590137628
Pt 14.102808360586346 13.19292908099361 10.761961856548172
Pt 8.993239067542996 7.272954383348578 10.513722202902253
Pt 8.346308313474589 9.68324390862925 9.735100968832429
Pt 9.718519106235416 13.604870611995773 7.843458976578827
Pt 14.697606503261293 11.658028387707486 12.93860937861842
Pt 12.940614474692246 9.448144124664712 13.233622330242014
Pt 10.201494071512213 10.363264445897418 11.465984971110922
Pt 6.839595818267338 8.452846269679915 11.586951488798208
Pt 10.184471985247107 15.43358498589319 9.72300288982134
Pt 6.465976611429843 10.948857056416138 11.123737774331113
Pt 12.038090891796006 12.034692035173865 12.415149346881405
Pt 13.722152153992473 14.080973212257645 13.20366565279397
Pt 10.013766002032703 12.826622238320804 10.660654065911066
Pt 7.8897206607915376 12.292671874819055 9.234254547471782
Pt 8.87237272797663 7.542219637115824 13.14610600061004
Pt 11.917984996823442 14.688638189693847 11.488914598978146
Pt 10.531959537240663 9.261945619508921 14.182874146437602
Pt 12.20253894488884 10.984961624269944 15.151698908686077
Pt 8.197711779359281 14.919679498797548 11.170003690327183
Pt 14.197900722013276 12.639575556828875 15.358182687460864
Pt 7.991670745407337 12.612338129357386 12.497785637785743
Pt 9.90214423883443 11.82677517416247 14.070744186770343
Pt 11.753755219692351 13.598457065073633 14.767316287405185
Pt 6.114876221258926 13.46157102049513 10.78832107497903
Pt 9.86623158392032 14.351840879714572 13.18151315294788
Pt 8.167778434680802 10.065798357403366 13.150024547377575
