48
Energy = -242.57176932 eV
Pt 13.135307486543466 9.408133437751236 7.963553973595051
Pt 12.963775910788588 8.445243868831088 10.292645732651792
Pt 12.791200453683414 7.131606178550269 12.52901796746026
Pt 15.385904222468966 9.465658376988419 9.277067628585776
Pt 17.258018335088046 9.030957801619579 11.007808081297249
Pt 15.072814137376543 8.01583950299249 11.780477049058353
Pt 14.324457134333871 11.801845600164922 8.165171426212408
Pt 16.43549696601511 11.974738146082965 9.79137858623207
Pt 12.909045323267703 8.456797246756746 14.666638520343373
Pt 10.657444530599761 8.20082319636282 11.467719423147468
Pt 11.782709698336536 11.445703537048422 7.315847707514163
Pt 10.749440883607784 9.765295392934162 9.234358657747645
Pt 14.715926680501871 9.865876226506364 13.548262365937063
Pt 12.20145641299037 11.957170362712821 9.96091824185172
Pt 16.70907746681369 11.089498696204743 12.349202583027232
Pt 12.218453255120805 10.30349283828637 12.339704181256637
Pt 14.390020873896896 11.046306134082581 11.046548830032608
Pt 9.689845298658481 12.368761087772873 8.86913454301611
Pt 8.458049597551103 9.221590301641905 10.389812126358404
Pt 8.617498513874514 8.66103382486843 12.976649924173717
Pt 12.694675010072402 13.931765441249803 8.186696245280563
Pt 10.652189080328341 9.533526354415526 14.384814141415598
Pt 14.555157479798718 13.863633133581384 9.974192101547782
Pt 10.531110274442595 13.62926126021 6.718985708038442
Pt 6.710911437644161 10.338808699118285 12.315680207938328
Pt 7.663996789109573 11.7200669454072 10.30001202938326
Pt 9.764298704446135 11.039649740587482 11.850498296404856
Pt 13.03358860348302 12.823239133123106 12.394958063986278
Pt 10.346708960369316 15.023003184008813 8.872525324163222
Pt 12.930277645904194 11.193003938935655 15.0373207362699
Pt 16.330244048466525 13.640751954654316 11.909721281481476
Pt 15.08801170771228 12.442716127835933 13.971349197603372
Pt 10.696395235082095 13.480594236270699 11.434642374005023
Pt 12.466444275249351 15.42796061979311 10.400295059106863
Pt 14.271301159908278 15.166093609467847 12.312793027645185
Pt 8.298544954058023 10.804120834658084 14.434416084535561
Pt 8.3757676992685 14.24543410730971 10.545413666500052
Pt 10.669455399197098 12.536365527014667 13.850500431094074
Pt 7.673067318497709 12.797785928882876 12.702402657755758
Pt 13.334985993760714 14.291418687324343 14.634154135020914
Pt 10.025686183974358 16.349848061309686 11.054235365781757
Pt 10.259232575154364 11.39261014862968 16.128288964125847
Pt 11.74682013003012 15.609320858828687 12.958748387981148
Pt 12.236733055002786 13.110423442443107 16.68701984152772
Pt 9.061277903813508 15.013105900820896 13.115104361375352
Pt 8.423460709335393 13.384768466062928 15.109114598530509
Pt 10.768151909826566 14.78607722102306 15.206743373473866
Pt 9.774406291497298 13.61711839582637 17.38630050548116
