45
Energy = -227.88010513 eV
Pt 15.338516462787124 11.331433881549057 10.233664556218534
Pt 16.2558549865796 9.046093264041465 11.260906830006169
Pt 15.121056188359965 8.296703614362649 13.528033258544028
Pt 14.22108308670083 13.63368515272796 9.492751423162092
Pt 15.427892344216342 10.858529933708933 12.937963440805985
Pt 14.807451136043856 13.184636677835678 12.036176449788146
Pt 13.92557127006025 7.947963228276083 10.970758834426698
Pt 13.51559783858891 15.351601292544883 11.542828403946572
Pt 15.2418034167116 9.070282430397903 8.872742904600598
Pt 14.345797309770296 12.637088771276114 14.577062780329438
Pt 12.557143465623952 14.589929341244103 13.94916732772191
Pt 13.863682677684489 11.102486014410797 7.858381700594305
Pt 12.140345179397926 15.357102814510931 9.382241363637409
Pt 13.522116899997219 10.065898638015595 14.694909516843222
Pt 12.596351845470044 11.724760509198159 10.019726905656098
Pt 13.004668877021714 10.183806889900994 12.007820084971277
Pt 12.537319442874738 7.890988933882702 13.235800624266183
Pt 11.818590077712123 12.156762170743768 14.994663940535023
Pt 12.246219298624217 12.566136350059566 12.406148433564468
Pt 12.291532483472453 13.195097477147002 7.675135369568438
Pt 10.956309809404036 14.914912120890751 11.751223313862322
Pt 12.6535210299507 8.88870045568986 8.824209566007807
Pt 11.217306001926351 10.737848319043374 7.544648443063049
Pt 10.758703935009375 15.268936941715335 7.236267717557568
Pt 9.467025573590794 14.808486046499734 9.48245647351877
Pt 10.657011528454959 10.013151183974252 10.889748558187028
Pt 11.360084490334382 7.453730188259127 10.703289995733996
Pt 11.00455955180895 9.611844270735265 14.76544990590553
Pt 10.157559331371468 12.371039070483086 9.918544468230598
Pt 9.941647372763555 13.994612626100947 14.082219005912993
Pt 9.995325561343062 8.179895781367765 12.855784494075612
Pt 10.034884958336846 8.647379291659867 8.680771337783879
Pt 8.605306978997847 10.638405442618444 7.6967446524034635
Pt 9.613841822972113 12.95788444689304 7.357009847672817
Pt 9.795810791996217 11.86602346933557 12.416771596008134
Pt 8.398130891823541 14.140955349852108 11.737723092917006
Pt 9.243420470789696 11.550995596990834 14.959972468583485
Pt 7.944705497879359 10.006916173605568 10.093608387467782
Pt 8.531964863377063 8.92195964476559 14.920271324835287
Pt 8.664101062227404 7.5346159039664515 10.680306068879034
Pt 7.680422353443566 12.60357334189535 9.49710389562516
Pt 7.407045645928051 13.34056762029896 14.067340377839855
Pt 7.558286851590543 9.092240740282943 12.470801362146661
Pt 7.172013706024734 11.725867710786394 11.928582639601752
Pt 6.7931762931154545 10.785058322925272 14.323859079023778
