47
Energy = -237.22167193 eV
Pt 15.347861386292129 9.686337564722347 11.351425679964063
Pt 12.796138899788433 10.784295668169216 10.195166835096828
Pt 12.806973908669315 10.179466589622319 15.373608223670768
Pt 6.60039954344063 12.200691519358221 10.515296029515955
Pt 14.250079313361866 12.222174319401395 14.562677014405219
Pt 15.168977123889926 9.667933516577914 14.057955769192546
Pt 11.555643867150117 12.638483824859776 11.72215896313637
Pt 11.374448504494813 8.059873290566273 14.023917503797977
Pt 10.333573645920376 14.365771220397109 13.480802311954793
Pt 16.2291575163407 11.895239040773804 10.136453204772371
Pt 7.816734220626531 9.93837554849733 14.292176592802344
Pt 9.015162339898268 8.028179964748675 12.674934016037486
Pt 8.908973911456716 12.541257676113307 11.898046147145877
Pt 11.402204291373122 12.989341186636125 8.53956038527639
Pt 15.556999987928956 14.464958565917994 9.943811563077428
Pt 7.682382796516196 10.382768250783176 8.94805872741451
Pt 11.164505117718257 8.700383028605767 8.708416017800587
Pt 8.760685701154868 12.900993967334664 9.09442165471272
Pt 12.89115196980813 10.539100022718786 12.748478049435679
Pt 14.075326222472007 12.747034839446462 8.649798963287152
Pt 9.949566310649043 10.912932030070818 7.725997205185084
Pt 10.162410766709598 10.699035833726239 10.3249112146918
Pt 8.948280730257155 12.44114416474523 14.645951701431262
Pt 6.6912552705373844 11.989925374650596 13.204674448237077
Pt 13.538157139399383 8.21279628875919 9.999444232823414
Pt 14.275508905044724 12.776038281017666 11.633458271184528
Pt 16.316116529272406 11.650971573558499 12.85328792989776
Pt 12.931020992626735 14.260276629970596 13.571041841190276
Pt 7.4998204182662045 9.986730789139893 11.611807479161717
Pt 14.432700796283886 15.778729809836976 11.890542971592994
Pt 7.7046315806054055 14.494393356314886 13.493656718220215
Pt 12.833464683056098 14.582113127912276 10.089120900539832
Pt 15.653972346739666 14.157359073381516 13.528775895094022
Pt 11.610899524670364 12.445316141139259 15.000132445805935
Pt 7.678780903886659 14.641086932700118 10.878609397965691
Pt 12.561701807633401 10.896997708866683 7.540160409957353
Pt 10.204776016854266 10.309103655516822 15.515505524742697
Pt 11.758532983576726 16.039524478003152 12.029990278883979
Pt 13.587861982930205 7.977894711866431 12.536873094069268
Pt 13.74135209740871 7.775628621599001 15.141309051884441
Pt 8.961217289402716 8.340105616601152 10.099193931584104
Pt 14.990129257375088 10.144181719843399 8.700620914758677
Pt 10.251680451058862 14.633562639400468 10.390529313723427
Pt 9.10623886195105 7.9273552068531945 15.290189064074806
Pt 10.261951283926257 10.440148340446354 12.880568954424275
Pt 11.261927899823883 7.921112041100751 11.295151722234495
Pt 13.456763835975902 8.476763021300782 7.400395728230683
