41
Energy = -206.15067876 eV
Pt 14.92924195436729 9.953122125706845 13.17312095877307
Pt 12.8812787331233 9.415415346242002 14.548864875773049
Pt 13.387713459851712 12.301599906708935 13.601946309409001
Pt 13.749263241546254 7.578647164652378 12.930951039856629
Pt 11.577538982897916 11.335048957224474 15.555107048717522
Pt 14.726724374851436 11.512119146961686 11.23271068368132
Pt 14.462544266976812 8.938422268701247 10.760828937904975
Pt 14.596606749694377 14.03344611897653 11.733915146769343
Pt 10.402774933825167 8.90038367356344 15.405589061232563
Pt 10.758218938630842 13.196850438303695 14.018811950126565
Pt 11.132526074720484 7.7005887504618125 13.160497866756605
Pt 11.93165089145085 10.016271645259087 10.25704086906926
Pt 11.29786781734511 10.330824681243412 12.731493424206356
Pt 12.18690944205636 7.3948243927932555 10.800801374606891
Pt 14.154238712755273 10.586531457665636 8.709844749681007
Pt 14.866570173804663 13.045306764521913 9.191077648919629
Pt 9.236000895933303 11.016935657244385 14.309508944119509
Pt 12.21661980579735 14.72644299369534 12.444008583694375
Pt 12.040746398811075 12.395458583025752 11.329646969268296
Pt 12.810979040573162 14.432828354778572 9.754825800616718
Pt 8.633911026478849 8.48140873648393 13.449603977308271
Pt 9.543312684994374 7.54744181515291 11.059467601156692
Pt 10.786184742234056 15.828043663246268 10.397674612864195
Pt 9.407090897418588 10.203193607367206 11.06805950444436
Pt 9.650316014438713 15.149694489979318 12.674027592779662
Pt 10.718599978127717 8.037920662596694 8.680816107917332
Pt 8.670889838787241 14.376546043138989 10.303110710427337
Pt 12.66416139226779 12.637245250325297 7.8019165585401025
Pt 8.889105463177183 12.669851146524538 12.262897950791483
Pt 13.31688004159101 8.133781732962426 8.47479576504022
Pt 7.017496482856368 8.283867069069197 11.315344950999062
Pt 7.294862759794816 10.605780606340764 12.525616062219202
Pt 10.490401408789504 14.249801481662407 8.310286574816278
Pt 10.425551441177538 11.900607944073213 9.449591328145091
Pt 8.109719042643691 7.963968633825033 8.887763211746314
Pt 11.85057151113277 10.107675179086629 7.405036413270059
Pt 8.204508553619391 12.582274014737653 8.350754656138317
Pt 7.257080724898651 10.309415139881835 9.546653895749623
Pt 9.195798926913888 10.067033505430008 7.7146671245532055
Pt 6.845167975138683 12.564189726232549 10.696667013930993
Pt 10.328913594449423 12.169303394228784 6.674745199722381
