40
Energy = -198.41828458 eV
Pt 14.215975047398448 7.768477510247159 12.509919256803816
Pt 12.07588044529102 6.20872405552211 12.523604766399101
Pt 12.141401535080266 8.738086122693375 14.550715444829434
Pt 15.119920313702332 8.940086846598083 10.271473157319493
Pt 13.0071248824677 7.276290718466196 10.222224891081142
Pt 13.894750856077371 10.246003659246066 13.211975154842653
Pt 13.302904905828207 9.086275018624113 8.216039924028856
Pt 9.937327309213137 7.591356721233975 13.292163560141871
Pt 11.7528289442974 8.962016315601533 12.03811132016607
Pt 15.060778716761932 11.095127466284575 8.597518311516788
Pt 10.333467375530358 6.926763098252235 10.719605063623044
Pt 15.373965025859146 11.417834187050339 11.28520250428598
Pt 11.691898885785298 11.436763274575316 14.198108818555584
Pt 9.603660627899602 9.774813914223154 14.706935778359298
Pt 11.23448769403768 7.483454089057953 8.260445959192793
Pt 13.075517686829894 10.474608291025175 10.45024717215468
Pt 13.24023848897672 12.604758333055138 12.378014313049762
Pt 10.552571608048108 9.819819725135243 9.842133403167669
Pt 12.594666508617351 11.866453194059748 7.880737900428552
Pt 8.370875092798725 8.698247511552713 11.390382044319558
Pt 10.938989412196761 9.931945627584899 7.293993092993212
Pt 8.434150201144329 10.233619279537157 8.383933700772314
Pt 11.284517743456883 12.331620380638181 10.299182201425834
Pt 13.941605989928346 13.20997462038783 9.749229265944134
Pt 8.683744821889464 7.749263619574312 8.899269740894415
Pt 9.980428331105289 10.756604589909026 12.302946528872898
Pt 7.4294856248501775 10.321817529732071 13.221819516675566
Pt 12.535007785719234 14.872133711317806 11.195987804717197
Pt 7.025181637655649 10.803381018549754 10.601411905877493
Pt 8.992973647618317 12.356142500697924 14.171516308895663
Pt 10.878263735843982 13.62388506301013 12.846840117711878
Pt 10.009210627618138 12.35643166794149 7.736116635574452
Pt 8.84077752167374 12.580353839881578 10.975212562263895
Pt 7.4939781910532295 12.631743214048969 8.67106377548756
Pt 11.673048182930364 14.336892136093981 8.65945851987738
Pt 6.792473514365602 12.805268109425143 12.48290623240909
Pt 8.516818301166957 14.756430871042502 12.98388329830302
Pt 9.987608029291401 14.999300840672301 10.698322633243821
Pt 9.014533369299622 14.752030134852708 8.276096960509912
Pt 7.37397004293039 14.649674273578373 10.469057390818246
