46
Energy = -233.50509488 eV
Pt 15.637227358715585 9.314822951417135 13.136470761557314
Pt 15.911475039765586 11.829800111072485 12.648624873502845
Pt 14.870975964106668 10.231972668785414 10.818872137324574
Pt 14.733382222212759 11.111773799617575 14.918972955223278
Pt 13.41712468535106 8.843153574608868 14.318383163423135
Pt 16.205178522044417 14.320804965354553 12.302695690945658
Pt 13.824529979666144 7.941086219459096 11.84820784129846
Pt 15.297083900595341 12.889345726574872 10.20837929745691
Pt 14.455788727018751 13.754605763194505 14.246064702578078
Pt 12.915108462855478 10.123951559932753 16.57690279683201
Pt 14.050250046902425 11.147370513575064 8.527565919850792
Pt 11.838011929868827 9.769259918851846 11.828158673623422
Pt 12.98729219417861 8.963261237229078 9.468802434289257
Pt 11.438964320162174 7.370603024190677 13.097080890168778
Pt 12.489109839390855 12.413188013227751 15.353658910652358
Pt 11.75854180817225 6.891492201582098 10.524502446491008
Pt 13.676752641904462 14.462388882766625 11.805999398034261
Pt 13.171540537464532 11.779695062932332 12.783266823898751
Pt 11.248267127878904 8.328075512680755 15.534580998510831
Pt 12.969420518098897 14.21405402425748 9.331239187504481
Pt 12.304078279347516 11.836519505495957 10.297447864474577
Pt 10.47944410010772 10.824718865558111 15.77911816196662
Pt 14.867313929063618 13.459725628371393 7.669249691785376
Pt 12.327031329259508 12.9207064458061 7.132783260589684
Pt 11.881184567555412 14.348573569271814 13.739880679469469
Pt 11.65023568676929 10.4218118566272 7.708364961251851
Pt 10.075697031672345 13.428920743613084 15.493182977731744
Pt 10.551177265745764 8.217212830500454 8.670241403330028
Pt 11.167057932145669 14.447386974993925 11.206128432136028
Pt 9.827140054640967 9.463142145385664 13.624421483069073
Pt 10.503513533601952 11.960145064183584 12.233998483482951
Pt 10.42739091967119 14.23335763091141 8.644286487878432
Pt 8.577126241719847 11.637753374616887 14.184183069813797
Pt 9.67367576971911 8.373297100137766 11.223720636705425
Pt 9.339641795404917 14.320655702605631 13.061457727118485
Pt 9.823426851446095 12.21091218938253 6.970683158406659
Pt 7.481141598973633 13.903504301645759 14.852975291486343
Pt 9.810918932715493 11.831365197892772 9.568204656267595
Pt 9.307095154064353 9.549815891077923 6.851875422011972
Pt 8.574710150776223 14.270892313230341 10.554058022646196
Pt 8.178401182151076 10.460034839388632 11.81964867412801
Pt 7.135920591394989 12.957135201900078 12.391678475617686
Pt 7.880467155819664 13.822823530628515 8.028640923624346
Pt 8.364962702777191 9.647978443018415 9.340076570397882
Pt 7.424461210413143 11.285371009601283 7.437081937821506
Pt 7.193120401342731 12.0487962060263 9.944714673723503
