41
Energy = -204.11813313 eV
Pt 8.503494462600672 8.61752540321753 15.732561903982582
Pt 11.033050244020632 8.518811823478494 15.300214854017923
Pt 11.921766443038697 7.807440519832127 12.935599055469341
Pt 13.287634845303726 9.547910906480475 14.564354906403723
Pt 9.153321885577896 8.14987169656289 13.285078964035772
Pt 8.76240152445486 11.104640728724643 15.39754770289969
Pt 11.302453250615487 11.126769485629154 15.256759139381009
Pt 10.622070675821854 10.188294441584853 12.889658963063273
Pt 15.53234383782454 10.6353638303085 13.72048338619017
Pt 7.981182147527561 9.354524763270934 11.315981609875058
Pt 11.40954363979756 13.681480394365712 14.547792673744128
Pt 12.861012161495168 7.686483918784715 10.495220559839254
Pt 13.579868342276296 12.179211686996142 14.430274084729644
Pt 8.243125642836642 11.428415985053249 12.924788562675596
Pt 10.356226885642206 8.373101668922052 10.856857485829352
Pt 14.114197842180264 9.164400194202164 12.120192315596473
Pt 15.482894650321853 11.161868475099345 11.237177325997328
Pt 11.93562284836968 12.348641897456352 12.412748844818017
Pt 14.519257445726128 9.518254556588756 9.311321085460733
Pt 9.278249640247415 9.676150870766161 8.861098835768699
Pt 15.055256347344068 14.020276884996816 13.508719836373315
Pt 15.206186872687466 12.168527010824015 8.906380191146896
Pt 10.213993271283687 11.529391495814824 10.60118587390758
Pt 11.811120974267247 9.174254563293694 8.666133029038775
Pt 13.35576722014928 11.078609762940054 7.484395172904288
Pt 8.874645279513393 13.501939123966388 14.481096726156954
Pt 6.718668730262407 10.109625673535762 9.1137235544861
Pt 12.718564970481879 10.918327532365273 10.453965329583147
Pt 11.277277489249137 14.661433423221782 10.590042072552508
Pt 16.04766285196322 13.609074973357185 11.234534789889306
Pt 12.887599870632961 14.896781907457523 12.693945347732935
Pt 7.6490873376688855 12.092432356909699 10.493951577116997
Pt 10.716228839596244 10.957502372199382 7.11326745090714
Pt 9.078226662414364 13.75279586216065 11.86876936019051
Pt 12.245459760408586 12.794241151729793 5.96601121750056
Pt 8.134766551129365 11.828655359664282 7.80927085366803
Pt 9.234167160062176 13.876269466999275 9.247840261182823
Pt 13.636857245758778 13.554749036328634 10.412659997085418
Pt 10.429584376800069 15.60469588797754 13.020590191094081
Pt 11.705551826937466 12.87398674563826 8.691058165809313
Pt 9.833806512630092 13.437464728215486 6.756945308815784
