46
Energy = -233.48254299 eV
Pt 13.368080111480978 8.81615453973453 7.891776502752316
Pt 12.767218852412018 11.10191474712862 6.715333267592881
Pt 14.259339908726455 11.076116253125516 8.923105457720434
Pt 13.84384778030792 8.95271624072066 10.499434576627309
Pt 11.881487582070964 6.787280860893813 7.0278315476365165
Pt 12.463494569606455 6.8391215511534496 9.54852839989006
Pt 12.898641632401661 7.0075024398947585 12.066044736804388
Pt 14.135137629123141 9.248361109353722 13.144774423102483
Pt 14.310468598829354 11.324904486542597 11.539780646800581
Pt 13.355587411051511 7.2323033992656205 14.619437329045825
Pt 14.224195075820347 13.546697557077973 10.00707137513873
Pt 11.241546627164913 9.511903164669938 9.639557241488797
Pt 12.580322176267094 13.425564979047113 7.788409124061453
Pt 10.90792494681487 9.23178974174015 6.974563020328097
Pt 9.845564375649516 7.355975181019443 8.588982109625872
Pt 11.66429470139154 9.64828821639288 12.286500798411085
Pt 13.226392234522638 13.932448513989952 15.19950341382406
Pt 10.392372319521778 7.172035566171657 11.214408496864731
Pt 14.028700382162063 13.827965261653132 12.67666632603208
Pt 12.057631495078905 11.937849788013441 9.92319624536593
Pt 14.234132870977929 15.906568665522494 11.168004814200811
Pt 10.852911470429673 7.540693831598497 13.845824825336749
Pt 13.887186324017895 11.635652609941058 14.143234189558969
Pt 12.275589925637384 9.57300394966431 15.066648163530349
Pt 11.737854944462455 12.221566113094623 12.511846928290476
Pt 12.427640801512558 15.489980473239878 9.361578725914239
Pt 7.996686007180245 7.943862281725653 10.252217656631416
Pt 10.393102906785865 11.763095197681828 7.600542326960694
Pt 9.31860053889367 10.113621974934485 11.29315380255075
Pt 11.332677840692309 11.990108235455086 15.072514913110385
Pt 11.804847781068366 15.030455775524093 11.853981611955637
Pt 9.753179293051984 10.020769054890124 14.317369750884025
Pt 8.760159581384583 9.836104489457002 8.450238140031455
Pt 8.518014810236076 8.048062910682376 12.93579529377726
Pt 10.197650250867735 14.189354519045906 8.665443918643229
Pt 9.779241514175109 12.587200531634398 10.875122753968434
Pt 6.152012369074011 8.695611811710917 11.954260052778817
Pt 10.892019942868213 14.477487689316575 14.19634654932307
Pt 9.10883698051481 12.551401970754576 13.728611094359577
Pt 10.107047910590463 16.259750901494197 10.276501687942094
Pt 6.9238687059868305 10.568369111724783 10.290268523388159
Pt 8.152849511079788 12.366563114189121 8.841481896451315
Pt 7.490671156968631 10.635617086789114 13.073515757183447
Pt 9.143290099474056 14.813773195513056 12.286103957694198
Pt 7.9162050452548645 14.7936431686251 9.928241194221288
Pt 7.305371819724472 12.869469230217229 11.66442809150447
