44
Energy = -224.99379305 eV
Pt 12.07675332 13.95864894027139 12.07675332
Pt 12.07675332 17.605586928461758 12.07675332
Pt 14.21281008025552 14.21281008025552 14.21281008025552
Pt 12.07675332 15.838664204614485 14.015332312934401
Pt 12.07675332 12.07675332 13.95864894027139
Pt 12.07675332 10.194857699728608 12.07675332
Pt 12.07675332 12.07675332 10.194857699728608
Pt 13.95864894027139 12.07675332 12.07675332
Pt 10.194857699728608 12.07675332 12.07675332
Pt 12.07675332 12.07675332 17.605586928461758
Pt 12.07675332 6.547919711538243 12.07675332
Pt 12.07675332 12.07675332 6.547919711538243
Pt 17.605586928461758 12.07675332 12.07675332
Pt 6.547919711538243 12.07675332 12.07675332
Pt 14.21281008025552 9.94069655974448 14.21281008025552
Pt 14.21281008025552 9.94069655974448 9.94069655974448
Pt 14.21281008025552 14.21281008025552 9.94069655974448
Pt 9.94069655974448 14.21281008025552 9.94069655974448
Pt 9.94069655974448 14.21281008025552 14.21281008025552
Pt 9.94069655974448 9.94069655974448 14.21281008025552
Pt 9.94069655974448 9.94069655974448 9.94069655974448
Pt 12.07675332 10.138174327065602 15.838664204614485
Pt 12.07675332 8.314842435385511 10.138174327065602
Pt 12.07675332 14.015332312934401 8.314842435385511
Pt 14.015332312934396 12.07675332 15.838664204614485
Pt 15.838664204614485 12.07675332 10.138174327065602
Pt 10.138174327065602 12.07675332 8.314842435385511
Pt 8.314842435385511 12.07675332 14.015332312934401
Pt 14.015332312934396 8.314842435385511 12.07675332
Pt 15.838664204614485 14.015332312934396 12.07675332
Pt 10.138174327065602 15.838664204614485 12.07675332
Pt 8.314842435385511 10.138174327065602 12.07675332
Pt 14.015332312934401 12.07675332 8.314842435385511
Pt 15.838664204614485 12.07675332 14.015332312934401
Pt 10.138174327065602 12.07675332 15.838664204614485
Pt 8.314842435385511 12.07675332 10.138174327065602
Pt 14.015332312934401 15.838664204614485 12.07675332
Pt 15.838664204614485 10.138174327065602 12.07675332
Pt 10.138174327065602 8.314842435385511 12.07675332
Pt 8.314842435385511 14.015332312934401 12.07675332
Pt 12.07675332 14.015332312934396 15.838664204614485
Pt 12.07675332 15.838664204614485 10.138174327065602
Pt 12.07675332 10.138174327065602 8.314842435385511
Pt 12.07675332 8.314842435385511 14.015332312934401
