49
Energy = -249.08253431 eV
Pt 15.299179860304799 8.647120653606084 9.686718570550012
Pt 12.35986636363441 7.226428899305631 6.60142831057664
Pt 8.640205555162519 12.284558161206224 6.950034302451135
Pt 13.023583097672029 11.563820243145992 12.17410725474783
Pt 12.889388018174706 11.999744344133806 7.633617629550803
Pt 7.588081970714364 6.051145992765079 11.472984185519389
Pt 9.083566847238703 13.023563863324105 12.958996705998976
Pt 6.240708848904251 10.876817287316479 9.952885994573764
Pt 13.429740741853632 9.028330741211017 11.570833261815817
Pt 10.312445084428006 8.86444987841104 13.937879821136475
Pt 9.118867237957884 8.501889641947802 10.53803241937047
Pt 8.36611742901023 10.639422704583 14.069608978487553
Pt 14.0612523678497 10.970565153680417 9.83390807989691
Pt 12.34098947187561 7.389122516393556 13.190320962822485
Pt 7.932231578140868 6.817259508301216 8.9042802300232
Pt 8.459510144124916 10.88997014013148 11.511412563727237
Pt 12.040281122679163 4.7272936494814735 8.89734176736691
Pt 6.477109227659976 8.347575763228939 10.695283587264871
Pt 11.554132698172786 13.646203766619552 12.47170820779238
Pt 6.1198964095566 10.244834486799917 12.528304534185972
Pt 11.303676264749214 9.53179894299637 6.387004668970384
Pt 8.2455903673674 13.921400911967298 8.993296238603508
Pt 9.673431350373015 5.168811189277983 10.183539321805696
Pt 6.702452952581985 9.028710182391222 8.111051954328772
Pt 12.52261267627706 13.095232108807593 10.056188502158076
Pt 8.898279521280642 8.183621149391785 6.838026803709274
Pt 11.50917747406653 7.880907368147715 9.90667599241655
Pt 9.890763753122359 6.713762725064661 12.490334597092092
Pt 10.94673282321631 9.971924416592184 11.639509444836568
Pt 11.582789183843357 10.304760902827734 9.087346120095331
Pt 12.014159983445541 5.6813418163780645 11.257495351413583
Pt 5.986388916120487 13.378154283771572 10.387202725733614
Pt 10.975333035129767 12.013778607692192 5.8272811633334465
Pt 13.628575350800466 6.811712261522529 8.84705840262643
Pt 9.0772058549608 10.12336752811498 8.526263581702716
Pt 9.911574425475935 12.126867621780876 9.871379593020881
Pt 10.946966463512037 11.435658631081129 13.881751428770084
Pt 14.401317317421332 6.613804754918323 11.3319155868315
Pt 7.9041388084799395 14.731009460817031 11.480370566884725
Pt 6.604082142025477 10.6841938363969 6.18590019894629
Pt 9.033973186827883 10.258789912068782 5.280417355845078
Pt 10.74078389442354 13.616781639471057 7.938162435377544
Pt 10.387470050520934 6.458244647028296 7.97471901667649
Pt 10.431509595007368 14.799463830613734 10.295884702359334
Pt 13.591939882464992 9.328739374705638 7.685667877089329
Pt 9.928380303608487 15.639907050200586 12.74797302069135
Pt 7.783875697851354 8.231823394547249 13.067665417187666
Pt 6.252896729409455 12.478728128145598 7.972227720078183
Pt 6.509421070512 12.769239077677344 12.890655993547133
