48
Energy = -241.27648652 eV
Pt 12.08907827601738 5.26083361199491 11.571636208056255
Pt 12.38050264675214 9.252700640444992 11.43695592171953
Pt 6.914498142302708 12.070824693710444 12.557239554492462
Pt 12.54453011262497 13.680560379433556 15.911397712503542
Pt 8.270516243429535 11.51031659496609 10.373252931852226
Pt 13.043326096600678 15.827028020980984 10.659900727321544
Pt 12.883585888281125 11.06222333630973 7.857697708401341
Pt 10.809088671979147 16.169772283728484 12.131119024695629
Pt 12.713797652243743 7.237184905436578 13.237243977125965
Pt 11.735186383765406 8.93072538615928 8.887641771133016
Pt 10.454904044274489 7.288286753694094 11.847463186602543
Pt 16.616028666345304 12.338954852646356 15.344734975939652
Pt 8.910244125979782 15.267076966239593 13.683492618064886
Pt 11.511581194430688 13.5629064914623 10.847953494009548
Pt 10.715730485497868 15.65471481799402 9.473131661537868
Pt 13.245255692393982 9.610931922313693 14.059760669351322
Pt 14.836482037800266 14.137709653727851 14.554107949004303
Pt 9.125806718185022 13.571586105569851 8.96437134538145
Pt 14.867506775810073 8.625525703557434 12.050630860118916
Pt 10.55367709933487 9.185453285396704 13.72284340198366
Pt 8.976484443662555 11.237574417759367 14.068552995834892
Pt 14.109298385278247 11.620962913869374 15.499498470825568
Pt 14.041652735953841 13.757487629922025 9.32055495771564
Pt 16.51350224564142 13.240637323328894 10.283638083320456
Pt 9.220612922256297 13.189859430152772 12.083139683859
Pt 9.973528700851032 13.407511557501854 15.358630342698582
Pt 9.781112157453322 9.564000990929728 10.912012839192704
Pt 7.467642858484577 13.324478589481107 14.817312735709045
Pt 13.502229832180857 7.089529278558609 10.395291982049741
Pt 11.680440424401276 13.474879362709018 8.16057966180285
Pt 6.611427293060716 14.70299790612077 12.623470516133096
Pt 10.471014295046274 11.238751414008023 8.949155303811713
Pt 11.161803407370249 11.382874553609305 12.359993096177401
Pt 11.076215271166607 6.540945398636468 9.463238157835194
Pt 13.89065966173103 12.07594383088859 12.849572040070104
Pt 13.268110116789405 15.885204071708662 13.291363198783722
Pt 8.54531477312534 15.427340963554895 10.91622261733458
Pt 16.674187210974388 12.772294737767066 12.818265827190805
Pt 15.82455322009357 10.31257752213811 13.784711686329958
Pt 15.368090335560977 11.62182654498783 8.584848731195985
Pt 14.892890264157105 14.475300656324734 11.866563670364943
Pt 14.43517232157692 9.328001354755077 9.443976722417837
Pt 15.879253845989977 10.828575742400547 11.125153829862128
Pt 11.962897978847273 13.66902616746846 13.381621996999096
Pt 11.157661947732567 15.779565016049702 14.863696231623324
Pt 11.511216116504947 11.272727463439441 15.211172110524826
Pt 13.167549859918523 11.559341392637101 10.443485834456245
Pt 6.741983582428743 13.602378287785854 10.221684737911396
