42
Energy = -210.78042729 eV
Pt 8.376654641093621 13.238152856783879 15.073777704651466
Pt 9.9234554441594 11.420887345536041 16.180892365362876
Pt 9.169610017425551 15.034864779760836 13.25845827130372
Pt 7.303841037833597 12.899681957694764 12.763786762811252
Pt 10.941870134422956 13.294124910778532 14.526906176773066
Pt 12.441291662644264 11.31949639321625 15.369575271503702
Pt 8.714389746977867 10.856590946991847 13.86429974420079
Pt 10.641846158848479 9.310581867513248 14.773728124976431
Pt 8.23576447547363 14.770817924182378 10.816084786285634
Pt 6.619036135204057 12.708240247222383 10.293619859243156
Pt 13.483973210281256 13.129758354160394 13.707503664093528
Pt 11.700390226677 14.919579924592508 12.653434370875077
Pt 9.76902481012552 12.85135768245039 11.88943283057336
Pt 13.192990405800318 8.792348878173835 15.267424478823608
Pt 7.850987717345889 10.607510949335644 11.410897455838729
Pt 11.492238270682554 11.005095498641891 12.89532912013353
Pt 9.511308084978642 8.784163202312941 12.412683076420231
Pt 10.591430392061785 14.559633019480865 9.684259838021502
Pt 12.297055115628538 16.35064963286974 10.55632322535785
Pt 8.92921864989137 12.665665976792324 9.110983368374571
Pt 14.315899233158017 10.610105105078654 13.6627914157513
Pt 14.670440285683203 7.966093490925574 13.252233355364535
Pt 10.608229637893182 10.723089406531164 10.452300205481414
Pt 12.086735957413548 8.21897111426998 12.879912389841962
Pt 15.075995582375217 12.23725397797525 11.764428758198985
Pt 13.154996149943289 10.105663083905077 10.932727910672936
Pt 14.054524163592198 14.644487014560482 11.5671192337739
Pt 8.840466441993408 8.778608909408005 9.81719746019056
Pt 7.195821754367251 10.601865390956958 8.804988473839517
Pt 12.28608826476582 12.6668040423941 11.04082461006192
Pt 9.685221064094069 10.483353361667884 7.902635636945048
Pt 11.23157730405897 7.962908554732998 10.444100422226443
Pt 13.103639027683649 14.333415358845992 9.059915624678553
Pt 11.385453981513026 12.536288145792378 8.081297909454833
Pt 15.648447173879893 9.594352718875179 11.522564486979604
Pt 16.232746727911795 11.171125705029304 9.582027792836953
Pt 13.779901498079969 7.5341678892449 10.767407551708837
Pt 12.216107933060165 9.963507814263496 8.181673431107955
Pt 10.525705748095476 7.981944390823422 7.93038145678127
Pt 14.61239488978615 9.165117167790209 8.880760921994051
Pt 15.628158674027576 13.745650669765585 9.61642035973233
Pt 13.876369163101993 11.862636605847262 8.748021315190694
