44
Energy = -220.22924077 eV
Pt 13.844162657387788 16.419073797283737 11.025667852764661
Pt 14.851240163078124 14.102590314720066 10.723423599624116
Pt 12.944682357800898 14.837474665837313 9.010945764579873
Pt 13.47693728009687 14.597619238293072 13.085711999691268
Pt 15.850734449422061 13.428487936395214 12.961714444071173
Pt 13.884835975282252 10.852252382902229 6.790318733948123
Pt 11.532930964525033 15.366061213328639 11.249551897721183
Pt 12.897873899124752 13.450332396991794 15.366604068091613
Pt 14.489158076154052 12.499849913120578 8.697063554013926
Pt 11.996448504513843 12.869401909479459 7.53688857317531
Pt 10.9846545696615 15.228759800853823 13.783129271758465
Pt 9.428871808379135 14.049144070722491 11.952995800346416
Pt 15.122679601340094 11.517857384979056 11.215675934863773
Pt 12.539836608219494 12.691123552053915 10.625202335638921
Pt 11.284670431572755 10.59940442955674 6.319064380204099
Pt 10.724841463132801 14.48796889677105 16.315692947964568
Pt 9.59842487400853 11.659010700141312 8.06135433373274
Pt 9.013885144545068 13.576596829306077 14.5678386126764
Pt 14.0066427624949 11.80142480970832 13.738410962690828
Pt 11.516075401164088 12.619360676503955 12.996271114922338
Pt 12.25235427591197 10.60847493391737 8.918312959075953
Pt 10.344969710841493 13.850201042520808 9.4338865489657
Pt 14.584918154483292 9.439215087512261 12.869930276528947
Pt 14.759568537453195 9.889059433293106 9.251732124938545
Pt 10.885118038123485 11.889068989947974 15.561937406182478
Pt 12.448077879430963 10.2662940096891 11.592772645613573
Pt 8.12922883051895 12.533303994789634 10.14541937374988
Pt 12.770789898520595 8.491807436777966 7.08305757916784
Pt 10.270493793560279 11.143346618852865 10.572584557467833
Pt 14.770377093744495 7.857968398077433 10.87700487662187
Pt 12.198378685422473 9.963488688143075 14.242838304475743
Pt 7.603947723927229 12.313224652957306 12.79540734825103
Pt 12.498753595697002 8.014169825222869 9.603315906940969
Pt 9.645515767330746 10.779276098217613 13.0089010024414
Pt 10.352199396201266 8.857124906310881 8.236655646996331
Pt 8.21429670273804 11.143324772319385 15.142232051606141
Pt 10.12331459736963 9.400396096764332 15.82311502500844
Pt 8.304827986037054 9.693108584478972 9.606625402602653
Pt 12.410418803514483 7.784978109413834 12.246985943396314
Pt 10.16382602095288 8.14925342677034 10.810538832003063
Pt 6.419235131425288 10.744159140046165 11.088898927939544
Pt 7.991872957424793 8.969260259237833 12.150074980306526
Pt 10.177791806859782 8.134274035847918 13.466091863093993
Pt 7.8880041531184935 8.596592433628151 14.707784643374161
