42
Energy = -210.82893814 eV
Pt 12.316104951179344 12.696996672594807 15.448909090314501
Pt 13.816555462628624 10.662345638942078 14.404917657493176
Pt 13.595610700183931 12.983431937336784 13.020262763044892
Pt 12.189109490168676 10.278652905863213 16.364911487467754
Pt 11.427263672383894 14.417717233385511 13.603979641787728
Pt 14.8724591423361 8.603233015598756 13.174881388831931
Pt 14.975136077975192 11.003142252358158 12.018005525458973
Pt 14.76413200232033 13.26778900030926 10.699667794797998
Pt 9.862038787300605 13.764106381499932 15.607333161062753
Pt 10.321369421341027 9.566560218571764 14.797254882692977
Pt 10.183713569836812 15.758129839249458 11.646190466898426
Pt 11.221173372250254 11.539408953044765 13.47104198751174
Pt 15.799279757284372 11.262885733940214 9.398361028970353
Pt 15.507928028988433 8.95207752151031 10.420665084810313
Pt 8.804966221850263 11.779998147836382 14.35050423110077
Pt 15.243234231604795 6.641755219721417 11.481503068417206
Pt 12.524249278498287 11.776980407958115 10.558272399204478
Pt 10.4421044947891 13.134385413101747 11.34491717375572
Pt 12.644441974824378 9.536545513630774 12.213387567510356
Pt 12.811605283641793 14.885583189485853 11.425378906601576
Pt 12.85629980224819 6.847529959505174 12.607614533407256
Pt 14.013712683985549 15.196275915933766 9.066052212319622
Pt 13.780041640498277 12.648029223682359 8.248961266856538
Pt 8.721732352765889 14.205865457129136 13.258362407996602
Pt 11.654502334910486 14.131369974247551 8.607075482246675
Pt 13.528106585857767 10.048220349260893 8.772718714055662
Pt 8.435855591620246 9.641741004505928 12.881910993043057
Pt 9.499435647486104 15.69126364268156 9.086335824072908
Pt 13.208566867038599 7.830794419881996 10.152700617759635
Pt 7.647002535829867 12.105175642643086 12.051493114443618
Pt 10.358842447811083 10.537502663375554 11.27715673289503
Pt 11.848515720095829 16.577280743112446 9.692510600808674
Pt 10.533768710500457 7.997776191024066 12.783961070396257
Pt 7.926232745349141 14.462479192762954 10.76661561217286
Pt 9.320535619194755 13.080989254092682 8.892941187587875
Pt 11.292076366753403 11.471489157643978 8.28837678659543
Pt 11.096843171462615 8.957108308162727 9.15749855939974
Pt 6.9497494556853 9.939622217164318 10.702714437236516
Pt 10.950463490533211 6.679475700788693 10.62998741781879
Pt 6.9079029218291765 12.328399180018769 9.613444735960849
Pt 8.913609977861404 10.528339761865224 9.067633056095397
Pt 8.853482368208788 8.201301803490018 10.563344288009583
