49
Energy = -249.66682572 eV
Pt 11.50995881004772 14.526745992973543 15.707705710371846
Pt 12.113539152205622 11.96207138158928 15.803833226314104
Pt 14.62074466262085 11.023969228542576 16.087187477053046
Pt 9.603390519584176 12.76421052193902 15.234003247791135
Pt 16.803935417260547 10.673120934293278 14.493029614134132
Pt 13.563609159222453 14.649428701709343 14.115072732646013
Pt 15.204030199653996 12.760478032209638 14.32080810231355
Pt 11.787716406805943 16.577215623823594 13.948209161594102
Pt 12.774963210673478 9.444782643618746 15.197087062514017
Pt 10.319511381117058 10.172069856797792 14.930697035964291
Pt 7.800856569303847 10.930713747107452 14.598996736670012
Pt 8.047321053389163 13.014143424202896 13.123003197483015
Pt 9.841060411201157 14.817196306881376 13.516483993334335
Pt 15.205310232009541 8.587521365524735 15.016002767530418
Pt 9.895334277946702 11.272831508577674 12.382438804732296
Pt 13.467996268448923 11.01462661365855 13.221301395953825
Pt 8.77061311558546 8.763609455006778 13.315257788178961
Pt 11.265308396887491 8.0780598003129 13.566438868273917
Pt 16.57543282286867 11.91039203573178 12.207574740992877
Pt 6.349106193308514 9.735055185648296 12.784626110160445
Pt 15.21991509244098 14.255416452904148 12.1221625769317
Pt 10.498910193769479 16.49554699176627 11.719258971966164
Pt 11.70919630992347 12.877421321261167 13.332330918710937
Pt 13.70124295010001 7.480770932805396 13.117145698964727
Pt 15.441825169686542 9.44434592298024 12.562968026485521
Pt 16.285563976027888 13.093379948016851 9.902925891590462
Pt 13.395778826971673 12.61202688975857 11.24576354215565
Pt 13.090649452185621 15.770696458686581 11.75087326343599
Pt 8.229454789682963 9.737659825513141 10.928974811943505
Pt 9.041245459620937 16.139743361388632 9.683976269777089
Pt 8.04340695884718 13.963971812346202 10.637834431109873
Pt 14.061326367127494 14.521650498680838 9.62325450617633
Pt 10.634276182127012 13.356427484209705 10.994011561000988
Pt 6.772591063001537 11.810626067576406 11.25248588345296
Pt 11.821834922053174 9.766446308757896 11.697905072735924
Pt 10.075851567867005 7.902588154656461 11.110897407755033
Pt 15.173099227519378 10.769314602138616 10.300926156649963
Pt 13.8805978091084 8.516142988776751 10.702669861119704
Pt 11.627278238646369 15.389754102701676 9.597146660567606
Pt 11.787751252178994 11.430417537350426 9.69174354574577
Pt 10.001262765733069 9.602375950400386 9.052031238175982
Pt 9.667284389561091 13.92140919730567 8.459929031308425
Pt 8.393311814343951 11.676642129872441 9.124018803342825
Pt 12.246581483300133 13.513313039307958 7.905492269155834
Pt 11.887547928341567 7.796600049411259 9.153918549635376
Pt 14.579125292613792 12.274960599516998 8.131920426497715
Pt 10.40597897395798 11.639923734888708 7.439425896374446
Pt 13.443359802289574 9.824671729147854 8.513524008619019
Pt 12.813749905420401 11.329715733193327 6.495423030379559
