49
Energy = -251.02523018 eV
Pt 14.346473418357178 9.73249872160487 7.41610947442766
Pt 12.952071034736635 11.941201081727407 7.087432943613994
Pt 13.553896721807755 13.949145169069123 8.75697587404959
Pt 14.718016356412331 7.629060660892874 11.180593684285588
Pt 15.182349915536118 12.02597410551614 8.532879767439125
Pt 13.136585545435972 8.159218653272257 9.13208395902335
Pt 11.677590975357464 9.466796750112737 7.426019444846247
Pt 13.48810839084287 15.077947210709388 11.093922453295237
Pt 10.36994224505287 11.555917917424681 6.4224878305144735
Pt 11.069511206746638 13.740419495836793 7.6701028234920425
Pt 11.75820761467098 15.748955532017531 9.221567404723476
Pt 15.071396564888245 9.933556450641227 12.516036505849382
Pt 15.011145183196236 9.940447856590978 9.962743927772642
Pt 15.037951161300649 14.382224845346277 13.006991581755521
Pt 11.397217709767299 11.403789637325465 9.147416439880784
Pt 12.921286267808306 12.51065079165574 10.904698136631847
Pt 13.30766214326472 8.212299670793088 13.299704774748516
Pt 12.064754568056163 7.151806044694264 11.29082196405423
Pt 14.443574061491415 9.718658632304363 15.095248612354068
Pt 10.48461106137904 8.007159324915861 9.34571497452291
Pt 13.934928728701486 13.993110284168543 15.54028280447592
Pt 15.420753387184932 12.319377629161123 11.257216310243916
Pt 12.643104027329269 15.371394048113364 13.69431148500563
Pt 9.110682005021316 9.895477583139623 8.042763208568028
Pt 12.258056860203755 12.848337618395123 13.309869366414045
Pt 12.440099623072154 9.919155250772656 11.11212777648019
Pt 8.719521180145293 12.515275514014498 8.196509274978336
Pt 9.814116606278136 10.311087758703486 10.820282103132282
Pt 11.060490111128406 7.0144783177433485 13.781286968445386
Pt 9.49629309485904 7.630819360242908 11.806133724345646
Pt 14.742602198304168 12.038816975191015 13.93970434766824
Pt 7.91804185303193 8.344534813773285 9.844543737087891
Pt 9.49411253950167 14.619911694794764 9.6449757258609
Pt 11.81813003975348 9.198959669823537 15.186520166633825
Pt 10.34377776682389 12.801396547573164 11.522808967626744
Pt 10.93634667349819 15.523022003671585 11.684563278573771
Pt 10.000745313134946 15.533345710514384 14.059179778570035
Pt 7.3735347076569955 10.892681766822571 9.868897165305375
Pt 12.757536747379648 11.586539643491669 15.799023532824327
Pt 10.990132453484833 10.685212188486116 13.162915816558561
Pt 9.336610859109125 8.902148395820099 14.196473097228816
Pt 7.602844825029819 9.525459678955942 12.197935991060277
Pt 7.216594026174535 13.519003883669725 10.053732777292716
Pt 11.229054566309912 13.691009350013104 15.544553961272516
Pt 10.090445685679843 11.23698768456773 15.547037035634862
Pt 8.356620267919762 14.75887955531358 12.1102970734725
Pt 7.553717439537875 12.201116021840075 12.21148124320439
Pt 8.921790234569903 13.226863546608925 14.242491168887527
Pt 7.737511534066543 10.918416453162472 14.423077036865566
