48
Energy = -242.99524463 eV
Pt 15.281511430355925 9.849928192098181 11.280290144717316
Pt 12.784573797123912 10.954547845415725 10.097792800257492
Pt 12.583160219798655 10.219909707339939 15.248195678123006
Pt 6.57505760223604 12.374801482969177 10.153124141688673
Pt 14.060919446584663 12.270500144042806 14.548734793302737
Pt 15.000293886535728 9.733994400081384 13.970320766372867
Pt 11.490310000556557 12.762804359387674 11.592740137226492
Pt 11.21031779500015 8.144749573857087 13.750140456123923
Pt 10.21674779670202 14.451386846503608 13.33509482675198
Pt 16.228612760358416 12.078078512740221 10.171211588363677
Pt 7.629939395356738 9.986797191010762 13.936302777285245
Pt 8.911148172871929 8.139689941697917 12.318681281274328
Pt 8.850130308170753 12.666597761407559 11.570178413542584
Pt 11.454374573565236 13.267953091725774 8.35802915338625
Pt 15.544180948813159 14.64644906205495 10.028114881765738
Pt 7.662228205502752 10.62254064304144 8.608334637703107
Pt 11.25132227304372 8.767964688451139 8.41134392227235
Pt 8.814638701347137 13.12728572158334 8.868815581329548
Pt 12.766451090240606 10.654904160596951 12.64563260129522
Pt 14.103139604307627 12.970437351634134 8.648463442639837
Pt 10.028358184795193 11.259814918629049 7.469647345443704
Pt 10.15347331512426 10.818950017009618 10.065854867282367
Pt 8.775307995964184 12.484573511192295 14.304061939620347
Pt 6.5597692961230045 12.053344950485396 12.836146030279155
Pt 13.500289740157069 8.407112324136941 9.808260763381794
Pt 14.212486634432738 12.893130843342286 11.634695003416882
Pt 16.210051111050735 11.750677649633873 12.895782409563209
Pt 12.809506440557628 14.342356106001027 13.542310959402649
Pt 7.398068950148732 10.103616769659705 11.246015276043533
Pt 14.37202060146023 15.905947687421868 11.990893561006336
Pt 7.589713152122178 14.550204175819028 13.096042130822974
Pt 12.835805203224389 14.753798989506281 10.09223119477113
Pt 15.52108755934903 14.220220264804505 13.618899108718788
Pt 11.40815146142969 12.500969258164746 14.87485768773321
Pt 7.60906988094498 14.856929155435923 10.51171380533085
Pt 12.638929465564336 11.141041630723091 7.4668567915896356
Pt 9.972504087578933 10.340831740246513 15.24412799830328
Pt 11.689677746488009 16.164273418670106 12.000499221139101
Pt 13.480632829606538 8.107119922606538 12.34606943053718
Pt 13.538616760270928 7.823392860637821 14.948943669256884
Pt 8.931421343754543 8.442458878227303 9.767927244463815
Pt 15.041194917597776 10.372570501730982 8.635305468359405
Pt 10.2390757348334 14.81664606933422 10.279471001658882
Pt 8.891814785813997 7.9625192524320525 14.932766091237514
Pt 10.135449625098147 10.521776047780035 12.618751987602588
Pt 11.204248916654375 8.043560437039478 11.033619543532556
Pt 13.603187126935314 8.741102095248506 7.213360590325469
Pt 8.947446905269475 8.883019842955385 7.1867834611937695
