44
Energy = -221.06647842 eV
Pt 14.907312922119125 12.916499643253903 14.115399153975757
Pt 12.818203470037197 14.232492939436657 15.03226107573094
Pt 8.011716437188662 12.196167394229688 14.674201701050018
Pt 10.487778396964368 13.052956511084048 14.892220183898848
Pt 7.922678112246112 9.564898178143567 14.029791277135205
Pt 12.681913023910473 11.62552321758403 14.523297878541598
Pt 14.758300755480718 10.387549261233012 13.20392753622146
Pt 10.38435401731967 10.403213617593554 14.749985275263162
Pt 12.437147362910373 9.190928899122007 13.5135716993194
Pt 10.020700108468823 8.105109960819812 13.48673284482498
Pt 13.916029575843169 8.583177117626203 11.329370975027421
Pt 11.64890490445179 7.234481588093024 11.558865234522928
Pt 8.60500494499932 14.715414403139707 14.025892684338471
Pt 6.001942941588092 11.128600646137699 13.107458965126456
Pt 15.499746905093856 12.599894973346133 11.598152248479447
Pt 11.085314549606567 15.235413166495576 13.293191988435009
Pt 13.484108383805161 14.273994184686345 12.470324235824716
Pt 6.772062082231343 8.77923440647726 11.878885859996341
Pt 9.250187791087603 11.29297667539239 12.620419865182695
Pt 10.963581791947512 13.050772331747334 11.91193789209782
Pt 8.962512933600854 7.764402788200731 11.086198404645826
Pt 12.945052931374356 11.366482796071065 11.601818974047047
Pt 10.773614049291195 9.710209767141267 11.441173975181353
Pt 11.910662293789661 15.379882862332027 10.680371484443059
Pt 7.405874616207299 10.982198992181559 10.795859114949701
Pt 13.048864191702721 7.035996534803978 9.232272753797826
Pt 15.837780042547429 10.246056553711032 10.729583420480354
Pt 7.298928661606327 13.254187606187406 12.248703280183129
Pt 10.387095324687646 7.511148154012109 8.937754826238672
Pt 12.223590232056354 9.47210726895184 9.32965665223143
Pt 9.210477238307623 14.841536087896316 11.399079275045713
Pt 13.724050624335236 13.509320629746593 9.95573086713977
Pt 11.91780773374397 7.310360035338756 6.83944208166539
Pt 10.212897033021097 14.12515923304006 9.054095161286705
Pt 8.992619076650593 9.755121657008013 9.259018246802535
Pt 11.181847975083102 11.792854492282368 9.727205757750038
Pt 7.902152969605457 13.222146315916692 9.678229045356987
Pt 15.107240298848135 8.644109288075596 8.862331023181778
Pt 10.610102375186528 9.669857956060584 7.139249385480479
Pt 14.25862514615753 11.207147258632974 8.857026596790048
Pt 13.353233655941448 9.459525187973844 7.0122425492863
Pt 12.465175749861238 14.336591582628328 7.95118654005042
Pt 9.424093099218462 11.926551229171782 7.8230267642309474
Pt 12.203474751840425 11.877887801993625 7.302930797020944
