43
Energy = -215.37932742 eV
Pt 16.556129195217885 10.01492972427737 9.225920699348006
Pt 16.46877671141067 9.22296549562742 11.830120818185483
Pt 14.459114304211985 9.553661215531049 7.628804678684582
Pt 15.465215967015261 11.554067444527401 11.037652069016826
Pt 14.554840429481573 8.69233423851512 10.10143475714521
Pt 15.081996266023136 12.083871986277153 8.45845325330287
Pt 15.162606141720085 10.745291810232956 13.57745392040676
Pt 14.306744545264415 13.092924836309923 12.772282548529837
Pt 13.9747436663409 8.66718820859694 12.608458135909702
Pt 14.542167275791297 13.84737239373353 10.279605128557286
Pt 13.704922350517654 12.28182311628789 15.19291273108682
Pt 12.62446808560187 11.265262357523055 8.4008801632581
Pt 12.596295015612307 10.190752880710336 14.149595307654582
Pt 12.829457578997822 11.180276928124256 11.440121749852233
Pt 11.535241463827443 11.143107207350003 16.26645383056023
Pt 11.419683503145583 8.079712199323735 13.012716961447554
Pt 12.253378312838088 8.717849933010372 8.94207843485405
Pt 13.643894208085774 14.874359744762096 14.572716142942241
Pt 13.526234586387183 15.512758180167863 12.036745176752056
Pt 12.713989003918432 7.058383664680558 10.986312052233847
Pt 13.392199024113657 16.07251452609783 9.49596834326505
Pt 11.582873897250895 13.757612104328418 15.770024710369016
Pt 11.351302578249248 15.063446145821313 13.424751092848236
Pt 10.341588740511975 8.062111167367712 10.602636934432246
Pt 10.085401182979993 9.431925225879475 14.85588699056476
Pt 11.132892297024345 15.693485705295748 10.851324460131114
Pt 11.114959124811556 13.145499393441634 11.595315524448171
Pt 10.446672486994869 10.800996109823775 12.429075866029926
Pt 13.16170151838784 13.825942515987254 8.086712742672356
Pt 10.535224357971092 10.547976450246495 9.776202663598134
Pt 10.780911367387102 12.979745382703973 8.972474189860371
Pt 9.679245397805818 12.090884645977786 14.778318659332465
Pt 8.819362343575156 8.154877354969125 12.82224864737718
Pt 9.208935414975866 14.63018155803565 14.82493723628745
Pt 11.129955498942438 15.500481891701233 8.210882634154268
Pt 9.037986407271788 14.623936082672008 12.13984025850713
Pt 8.263113909495821 9.682855264621624 10.70354980168481
Pt 8.959293026555233 14.770775660269251 9.55054279873905
Pt 7.992042528235831 10.499725496239423 13.608817247209297
Pt 8.609765060861953 12.289588926239249 10.374727971947603
Pt 7.558599958560291 13.08190264019816 13.537950489153364
Pt 6.339846915508035 8.929372635750546 12.259919765992258
Pt 6.54028643529632 11.568021683780774 11.719289098836619
