48
Energy = -243.0758134 eV
Pt 15.414848934933191 15.700151046190022 12.114323280486014
Pt 13.9360251173229 14.887422972399612 14.144686985528134
Pt 12.414684574381436 14.051261815752538 16.0421599747123
Pt 14.276924359510671 12.35460584006746 15.038989949109704
Pt 11.424801085445626 15.835904518798753 14.402405921443965
Pt 15.705964971557204 13.303831244456864 13.001123634041917
Pt 13.010714862896478 16.556077062977693 12.21874682081842
Pt 10.118907040741519 13.438842266741158 14.796713337759149
Pt 9.393698022373838 15.05873132538964 12.789863573647942
Pt 11.725104324455929 11.472741006506967 15.896609212390725
Pt 10.559412727549871 17.324741033245218 12.3542543466507
Pt 15.675879078704838 10.766230151660176 13.347771846059416
Pt 13.710073519863144 12.679919552568627 11.455429396145515
Pt 16.09333280932725 13.68323075147161 10.41306521172463
Pt 11.30005016396189 16.02776371445742 10.125384983130079
Pt 13.670551472416243 9.743418852301478 14.971644227604237
Pt 12.145893029728525 12.344674241411472 13.523432949360929
Pt 15.626375105848041 11.035414857588568 10.657266172006088
Pt 13.26187788247037 10.286642633065377 12.425403616095096
Pt 9.366778064444711 10.913204883296373 14.563042399176991
Pt 11.723363290560268 14.282555916948033 11.935809850174556
Pt 13.805006375864625 14.991170020679975 10.030568698704204
Pt 11.163869460691373 9.057439897179659 15.095438674624893
Pt 8.3383194454185 12.697874312717408 12.911475378772248
Pt 13.46984425184354 7.790311234030735 13.059630321313465
Pt 14.199513118789488 12.681516313567196 8.75453924565471
Pt 10.727197328540097 9.646951806737574 12.53660150861634
Pt 10.450036342969646 12.029289133661864 11.539080627362676
Pt 11.743210154238994 13.785765243158767 8.80619032987281
Pt 12.36509080450719 10.980456704636568 10.074074168804048
Pt 14.200728921006027 8.670856922550337 10.601045949768565
Pt 9.421722292500037 14.05471732177219 10.216810481908672
Pt 8.725286062648065 8.311474823022639 14.26444498734276
Pt 7.959723143452483 10.07780662686656 12.42390322954884
Pt 14.43194503750194 10.10957214336442 8.437911330746726
Pt 10.919964564806664 7.067894587309336 13.426907201853577
Pt 11.762259797900285 7.613731867207722 11.004406454064165
Pt 7.897814211635826 11.844580637024048 10.411479030952227
Pt 12.122635399280922 11.421069161830383 7.551525879401513
Pt 9.977649608713458 9.913214123424169 10.0173520596484
Pt 9.716089136294977 12.196789574498572 8.356948823477316
Pt 8.969916986741799 7.646696168000456 11.651986975815941
Pt 12.238385499969198 8.688980466047228 8.605292083317675
Pt 7.4799269204767596 9.132818584001143 10.037224069995181
Pt 9.897850290011757 7.463068855492576 9.169035355736808
Pt 10.077623508453728 9.700112362256274 7.3915573173592
Pt 7.62533590869733 10.702618736734173 7.945325426166527
Pt 7.911293575697508 8.129355272079954 7.614615288250522
