41
Energy = -205.58874515 eV
Pt 15.113847113701874 8.378682263464635 10.61664379854787
Pt 15.895657880744459 10.752379263582313 9.578782627176466
Pt 14.014433763258486 9.214187805291619 8.356261317732855
Pt 15.365001178963857 10.541563311942719 12.170860141019947
Pt 13.381599046610226 8.7009404069901 12.649862266869937
Pt 12.868329629979401 10.5091852540942 6.3674160802108855
Pt 12.477234419983695 8.021325567330672 10.24731533955343
Pt 13.902537765579543 11.946168176697464 8.28009096962377
Pt 14.456587317027331 12.74150733677462 10.72384619201318
Pt 11.421911768866138 8.863733378920774 7.937124918939221
Pt 13.169974275975976 10.51664467939842 10.549644577342464
Pt 14.317418868344376 10.238754717431181 14.607925660643549
Pt 14.291333906777549 12.64091577496774 13.446975592203817
Pt 10.975212750318745 11.000346613066585 9.370760892815944
Pt 10.218499649135309 10.430171014940662 6.113064773575888
Pt 10.830046182907198 7.984860523786148 12.440966689717124
Pt 11.40739514812165 12.491390469653547 7.329773319412608
Pt 10.943860599637949 15.600207787323574 10.642804001822537
Pt 12.180465068834573 11.360051777796608 12.738480376593483
Pt 12.662110184795345 14.098233423540977 11.997807984452546
Pt 12.454351028322682 13.907445192036597 9.27355244618556
Pt 8.766182962911405 8.975225293846604 7.705981694574842
Pt 12.426350796097642 12.00919524479952 15.286871730938238
Pt 10.423716213561336 14.90467743331656 13.107724179751237
Pt 8.793454175110135 11.58486837091867 8.106481391239317
Pt 11.73839991148048 9.432598076871656 14.550412599122941
Pt 8.159663733103152 8.063502334518597 11.94318777061712
Pt 10.025246297785865 10.34861046075558 11.665484400170024
Pt 9.734884398893852 13.960599384795378 8.82222296142132
Pt 9.881798841444066 8.095275275710188 9.943792353595535
Pt 9.84979251533837 12.220362921402563 13.551362979808415
Pt 8.441953872158875 14.837055752692164 11.32220806568532
Pt 10.434270101485547 12.88254995106258 11.104050030450923
Pt 10.617123911204303 13.810591300598908 15.41138937300304
Pt 7.801163856322288 9.854219697782408 9.963421853150034
Pt 7.922325184988806 12.433445090986448 10.442659560959457
Pt 9.927964795576292 11.066769336440357 15.822461440202739
Pt 7.297669767247348 10.538133926203436 12.385625658025795
Pt 9.134566362825177 9.33327595151154 14.040691481545093
Pt 7.497877796963418 13.063876037550962 13.058256486708279
Pt 7.400440998515044 11.158996725731418 14.932659567493552
