46
Energy = -232.57909668 eV
Pt 10.083705600841403 7.462413496472692 15.300770569202971
Pt 13.721848167822753 8.167118193258588 14.798869782062392
Pt 11.692392285984576 9.330417749110557 16.054007995213855
Pt 11.513786295702765 6.779187786860842 13.254604374917497
Pt 9.273218898940954 8.252592713964793 12.947401088026698
Pt 9.340938495972052 10.044593889419238 14.861949683213584
Pt 13.891530804052712 10.735929316542741 15.505699271612626
Pt 11.874102082492072 9.467035712748624 13.444895734856518
Pt 13.784828449998098 7.769242269354311 12.223843540433739
Pt 14.849988595758665 9.991484429402615 13.185291101455853
Pt 11.554178110144047 11.721633737034024 14.879845415310047
Pt 12.523939162092269 5.808622569570632 11.046668204963451
Pt 10.307133614270631 7.115283322146775 10.79080954038374
Pt 8.449014162079463 8.958224351893513 10.582512190421301
Pt 7.703752172551347 10.365089479990448 12.758980466357537
Pt 10.217885520523401 10.945563565743173 12.016797863979392
Pt 11.845419922817166 9.214861639326577 10.809464194247113
Pt 9.260341014895355 12.497794113501916 13.93838271731308
Pt 13.676929839709484 12.381069667156517 13.479454645553757
Pt 15.550294466365598 9.19017011345643 10.851291917432098
Pt 13.729571945849793 7.704766878830893 9.6061238139869
Pt 9.606485553213243 8.065379361788143 8.436196331656761
Pt 6.737073295795424 10.92569937221567 10.317195716291867
Pt 6.64330755473635 14.547432931867364 10.517651875333858
Pt 11.510235396190247 13.813463828710363 13.240664485104295
Pt 12.048337870072654 8.823464754312619 8.077128229156871
Pt 14.125222592519817 10.278587194208308 8.92619089744684
Pt 8.040123427700243 12.737373374183807 11.62091761617885
Pt 8.081705412741155 10.28743161350369 8.125918208154587
Pt 12.304518290301711 11.816049967475598 10.758451025127515
Pt 14.895598676857825 11.697716206221122 11.183377480465058
Pt 10.198092887211756 9.804654247618114 6.532591211035543
Pt 10.305032873858119 10.81677985111085 9.349203340657327
Pt 9.203216149313064 14.833696819922581 12.602131351968676
Pt 10.309584619385468 13.312922482024018 10.115072965944803
Pt 13.548481498160026 14.011411759327801 11.49683063883893
Pt 7.682729868913549 12.85860179248842 8.84976132747029
Pt 8.88359401888351 15.561065913882187 10.029355041876059
Pt 11.324383474786385 15.461036578550091 11.176027316168545
Pt 12.203545857652886 11.420479377487137 7.496922134987933
Pt 13.840978546878926 12.913756931718941 8.925113448653452
Pt 9.655726433170312 12.284246807018329 7.081407543358643
Pt 8.99748172355418 14.710569143835553 7.547025377495726
Pt 10.86599857037548 16.35836868041786 8.59655235170079
Pt 11.598931757287378 13.928303076649314 7.89074677558384
Pt 13.223169938963013 15.477634348079643 9.353612970909701
