46
Energy = -232.61211875 eV
Pt 11.945564778688926 9.86922793345643 6.201022065100457
Pt 7.614773109552331 13.057765677099862 10.751989266536373
Pt 5.665613471509431 8.932726137415676 10.616081747924962
Pt 6.627124526860488 6.2052820538583 10.956553105520932
Pt 9.080233048657004 6.293830573598711 12.152162045857409
Pt 12.006863739461005 9.42667794015035 14.10900002707745
Pt 5.613771915290494 11.705223405852728 9.551184218304758
Pt 10.009880195367144 11.132834297148154 13.78416861192321
Pt 11.329342742894612 7.259942779914004 6.077806043173934
Pt 11.395194407558883 5.892526327010035 8.36115686734888
Pt 13.440087151496654 9.078722770947477 11.947054307797284
Pt 8.656151176732472 8.147778455337571 10.38322002736544
Pt 9.492879073406327 10.401984941807731 7.454484561275857
Pt 12.152514021183999 11.489734926198945 12.333005734411113
Pt 13.455854243129297 10.962750781709964 8.10071147144204
Pt 8.693520657874783 6.7466598928031125 6.790018229816953
Pt 7.4932104741395325 10.170210648414779 14.170289731114845
Pt 11.096454050683176 5.32473898667305 10.879424136451982
Pt 7.960226101770328 12.646938499916402 13.258125676020123
Pt 12.881206127223525 7.087573585584625 10.225075113128286
Pt 10.324544398363523 11.454120268504816 4.8913016727097025
Pt 7.151659732533132 8.058980345570522 12.679695620958983
Pt 12.065831137152768 12.690247187469414 9.84323559935466
Pt 10.142855911472092 13.105543016363365 11.715778305023935
Pt 14.15331092522087 11.314721554069505 10.650911844430915
Pt 10.174231183953285 8.129741095048875 8.30718310985391
Pt 7.035225280664966 13.659343096147866 8.326174276944183
Pt 9.631296232240784 13.637540211378607 8.972996127945077
Pt 11.90989394805681 9.516600597235907 9.518403485995641
Pt 14.694498822946189 8.940562858194072 9.646418847244583
Pt 8.753649553268907 12.7746974808457 6.5533182106852585
Pt 8.139159744203392 10.433299304767882 11.642705816968085
Pt 8.878279152473647 5.706011129804419 9.383725229749986
Pt 7.757929895123528 10.899673449985926 4.872748951407147
Pt 9.476309650734946 8.90004846413764 5.239225383249431
Pt 6.782516599429163 7.308278817298307 8.601224646503685
Pt 13.215476891743355 8.067649071186313 7.682087131480304
Pt 9.900131470399137 11.266408217187731 9.862101662566259
Pt 11.333381735218719 12.327491909236205 7.242197386254206
Pt 7.500577469233887 10.017092767767917 9.034538287850344
Pt 5.814869845313578 11.234304795349063 12.117099668005933
Pt 9.508741620862864 8.402906617538832 13.872773088847222
Pt 11.58336869132872 7.222698001509036 12.638826331929605
Pt 10.532867434940755 9.415049151650148 11.60247790660549
Pt 7.181192305729044 8.927401683498125 6.605904222768281
Pt 6.426724178454601 11.435447117899054 7.073403021618662
