48
Energy = -242.86919791 eV
Pt 11.382033293545353 12.767992325387155 12.869058450840594
Pt 9.254311142084461 14.258355056900925 13.474668059223815
Pt 9.165291629086182 15.323692450402502 10.914878620175736
Pt 7.787544185538226 11.914741022847865 13.633527877436695
Pt 10.067470854440359 14.772792583603001 8.438663704574212
Pt 11.384021451629495 13.770910149939992 10.515657764967651
Pt 11.38254928829353 16.522616551841498 10.008845470909389
Pt 11.382970859464834 15.677072755826128 12.529107457655256
Pt 11.38350130044847 14.575688791403463 14.991020582569348
Pt 13.404014422285119 12.26927160568257 11.045343479811159
Pt 13.601470126166037 15.32438947456041 10.91435950325914
Pt 13.512112404874726 14.25781713879602 13.473428647553957
Pt 15.499277431871363 13.789323298599697 11.812254757538389
Pt 14.765283195784438 13.239139467843883 9.13524637601193
Pt 12.699836103218047 14.774330354132056 8.437506629057113
Pt 12.757479781058482 12.282834595695531 15.196118442855251
Pt 11.38346999850825 9.853245140804232 15.334499822068826
Pt 10.009076901749564 12.282904946087228 15.196372683907589
Pt 14.028810674474872 9.964852715706314 15.18767238603472
Pt 14.979824372020216 11.914202325696834 13.633946130009578
Pt 9.363151474123065 12.270342170798349 11.045465552141215
Pt 7.267536173357092 13.789353394808991 11.812798156275157
Pt 6.970303108643334 11.320048458307316 11.068557624071463
Pt 10.008016214210603 12.301248935576155 7.540124310196517
Pt 7.686034677445786 9.357994523308804 12.804837751723106
Pt 8.364172138401866 10.620292657978599 8.734998606062204
Pt 10.012700457191931 9.46852658887097 10.515877987687043
Pt 8.803720428304516 7.354940545362717 11.393348583655568
Pt 7.035150534894426 8.882240195397626 10.208497767756327
Pt 8.001122576062293 13.237414930645814 9.135002724612251
Pt 9.009784610147713 8.068588947788959 8.586387281657062
Pt 11.387348488981036 9.674288593351088 7.6816338534582504
Pt 11.38385271388775 7.310635682544536 11.540832152428864
Pt 8.738100185550438 9.964741519345381 15.186925467562494
Pt 11.382842259250983 11.446296149883253 9.497379659691347
Pt 12.758251996605392 12.302094244680852 7.540016059179089
Pt 13.75477321469162 8.070390701010751 8.584799251226995
Pt 12.754818783819214 9.469052063857035 10.517079881053087
Pt 11.382524447761206 7.220184778414321 8.958619815213035
Pt 15.730013716660473 8.881978133190946 10.207909988857173
Pt 14.40277259470629 10.621562660731222 8.734623990120104
Pt 10.017376690534066 8.088640437148756 13.711237216699981
Pt 12.65835040678599 10.513131649845663 12.837903435123367
Pt 13.963716331388882 7.353955839772654 11.393914807132989
Pt 12.749029303114707 8.089252369738796 13.711152413913782
Pt 15.081431608342468 9.357736869241197 12.805210436282472
Pt 15.79709645876204 11.319713125117358 11.068408686203012
Pt 10.108234946873166 10.511757124485621 12.836855650595147
