43
Energy = -216.54115917 eV
Pt 13.134850050926508 11.962324359685446 7.04316126003116
Pt 14.699726316600065 11.459782747485152 9.001868476105363
Pt 15.436379389698276 10.271290096184432 11.237346424334307
Pt 13.627658972064749 13.832137728285653 8.925581223216266
Pt 15.051885198466337 8.918559975584781 8.77509402068348
Pt 11.383698443974065 13.735519353824825 7.737331821509691
Pt 14.063630733137895 7.997832205032692 10.912287288143247
Pt 10.67937297433374 11.209474294029057 7.4211331275163746
Pt 14.326814813579256 12.761216980980686 11.273941962256039
Pt 12.53363643554093 9.635343797539447 8.36584584280025
Pt 12.627686855664116 14.775827873194526 11.198278887099997
Pt 12.48551843195325 7.741697050564544 12.933553005308452
Pt 9.8771358562706 12.370341146686625 9.65060452733937
Pt 11.75721773012204 15.936543446228988 9.086172346286652
Pt 12.800417991318342 10.47330171813753 10.887222304665697
Pt 11.425515736646025 12.59869634445201 11.75898593033801
Pt 9.322098069128321 14.9259603052545 8.920185866297416
Pt 11.559969820516208 7.910978637626243 10.378557463900135
Pt 14.24447770018581 11.157135787599676 13.414390407908687
Pt 14.909828989672 8.625647722207225 13.328568901281146
Pt 13.144487924200725 13.541701301755657 13.473457249554741
Pt 10.169676929753072 15.661556760831136 11.302757521685667
Pt 8.975261350380974 13.237163102227841 6.879135765262242
Pt 9.935306975170194 7.3643375157019175 12.70595335499807
Pt 9.894743314708547 9.019151099265287 8.598649111073515
Pt 7.188636105645105 13.360098117375115 8.822856950040757
Pt 11.455450554613005 14.17526740900507 15.322928963051579
Pt 9.82363483862678 13.990095290174422 13.310323744902218
Pt 8.355583602400113 13.699009559510621 11.219475871209138
Pt 10.220904218613066 10.115858299217585 10.931770075442394
Pt 11.53326045205483 10.370216587911905 13.196509931267427
Pt 12.70044492355545 11.831213940551004 15.485933461933755
Pt 13.122240068803356 9.256463408256488 15.102287347362937
Pt 8.099490164693762 10.985998532064446 7.911722060473354
Pt 8.98581128245794 7.198610809985571 10.352131508266742
Pt 7.375105250285342 11.330220482655884 10.50960336129349
Pt 10.949301041974424 7.543381417464622 15.076507061387963
Pt 8.523505854443298 11.607184315811407 12.861587799445893
Pt 7.350361965085066 8.968835643821194 9.356239351772095
Pt 10.083123684461608 11.951354040094841 14.933357686326696
Pt 10.947872925902116 9.87198822205548 16.294636355702067
Pt 7.994850165101804 9.180869545673726 11.93294575170219
Pt 9.288254774714206 9.504641905449025 14.23394750626715
