45
Energy = -227.78906912 eV
Pt 13.498214302147716 15.373655571774465 12.672937821744462
Pt 15.692853403966025 13.997459093235767 12.454353273812771
Pt 12.224805197587282 14.968498315044899 14.993899133719376
Pt 15.612048585802269 12.136009102911945 10.577397887760414
Pt 13.911674706086512 13.129526775106019 14.137961253071687
Pt 14.21285201564114 14.30659768356818 10.333895728580531
Pt 11.012054465221237 16.191978869721225 12.988178654409593
Pt 15.574816236614868 11.428383919593418 13.16482424149138
Pt 11.766456590516423 15.57802003647681 10.560435428939009
Pt 11.806028747354619 13.389661176664456 12.060490692990404
Pt 12.66069713329446 14.611936392888072 8.283445819512387
Pt 14.10091446625364 12.417107786097645 8.384547110843382
Pt 14.700393972314096 10.011316477706094 9.391114002167098
Pt 13.506226522814268 10.56173811344799 14.707815420801463
Pt 13.386100716498063 10.804311528448828 11.503134620585143
Pt 9.959688827416796 13.969237477544768 14.06976534220775
Pt 11.75285824378651 12.427648172171988 15.486300964730844
Pt 16.519374477621003 9.75058475666493 11.275205005690596
Pt 9.336437894461366 14.725439809390467 11.539535982542766
Pt 14.677589670511962 8.967447723300658 12.888847750305649
Pt 12.713056087265791 8.048175622241299 14.226425557715478
Pt 11.952687087598104 12.092923103959766 9.814860230730469
Pt 10.189994509840973 14.171738281069658 8.999404510506666
Pt 11.179131885080306 9.889250156352826 15.745560964693382
Pt 11.45149384904652 12.518572089465078 7.214584816378546
Pt 11.393069426420878 11.088952212869192 13.174318470850851
Pt 7.867468354543523 13.319814192004346 9.979903447994362
Pt 9.795111833389061 11.96550535339317 11.286130365464912
Pt 7.919561758596975 12.782733139197212 12.821329432158976
Pt 12.566202914108384 10.191895122030838 7.9716319471271975
Pt 9.271959468022299 11.576846579113829 14.808109904340997
Pt 12.71351560242684 7.76640387214675 11.626338377967372
Pt 8.475121001070018 9.839395837416843 8.617126055434387
Pt 11.099671455084275 9.732822425273973 10.968877159922792
Pt 10.37529528555514 8.311907763349593 13.044860174664894
Pt 10.599010983862986 7.319228797613031 15.521259861837336
Pt 8.90600023951621 12.297388208415008 7.705929278721199
Pt 13.16335949640259 7.844518540984477 9.141253573550555
Pt 8.71617223052163 9.05467235028513 15.367545464200402
Pt 6.5442682158657135 11.643481966170585 8.446652673453242
Pt 10.239810368860429 10.253550315692483 6.741620129845962
Pt 7.421351843917715 10.822554182364216 10.808754082210209
Pt 8.227451602934705 9.930471447568403 13.032521123255245
Pt 10.654713098783853 8.504486057449279 8.756616619343228
Pt 8.792025634523288 8.52271999716939 10.871157263152469
