42
Energy = -211.94740422 eV
Pt 15.167346383797232 11.924157215927904 9.4843581538303
Pt 13.310748849042998 10.343386095112223 8.204310456938066
Pt 15.18138760400433 10.165173820423998 12.72783784838583
Pt 14.224867117549804 14.31356622683499 10.203084870949404
Pt 14.883026125959628 9.318555528688401 10.127366074600122
Pt 13.124328922092557 13.024658266191567 8.217589275863313
Pt 15.332393036072622 12.778428997678777 12.069661918027144
Pt 13.638327394188185 8.079516580159641 12.109388478219014
Pt 13.191673888909312 9.541164745338612 14.35425978943415
Pt 12.610412657458658 8.067730392074132 9.492044627044185
Pt 11.247150472914699 11.525103091751577 9.720653909214295
Pt 11.387649700339367 11.726652509189478 6.775869656228913
Pt 13.910011136104856 12.098428222730691 14.233729160760944
Pt 12.062779210254195 13.39035389812388 11.364283205647617
Pt 12.914252856405893 16.35968687970183 11.245548850924546
Pt 12.44982732526529 15.570526789742166 8.748703684803695
Pt 13.371751486293382 11.195485618657539 11.216540733964202
Pt 10.539875410303722 13.792930359375815 8.35641763327236
Pt 11.628921652619038 6.483069870337616 11.425100965631023
Pt 11.931237968512391 7.286689717761818 13.959100487788211
Pt 13.647187726074801 14.52404056157895 13.084599811207683
Pt 10.808426166185475 9.494084384586342 8.047414915732345
Pt 10.544284105054004 15.300722475621308 10.606827972207258
Pt 11.373410186091952 15.78226834973854 13.286152800930275
Pt 9.07481568247521 11.62646500325388 8.178687828854345
Pt 11.471620769330507 9.471255859375413 11.400952718518926
Pt 9.942847108578333 7.764863510671636 9.85582127083635
Pt 9.722605631213673 7.808601608145542 12.661367629314878
Pt 9.444888317151275 11.034327910460625 11.541176192255039
Pt 11.640070981046936 13.588607207791753 14.698609975928486
Pt 11.881365082660896 11.29850287430316 15.888190063670983
Pt 8.774763706660899 13.360064015475153 10.312079585689558
Pt 11.50484081844009 11.477727891180615 13.039552408036682
Pt 9.637356844570105 13.941768133141325 12.748194436237156
Pt 8.215834073053365 9.144010505081193 8.50603314944631
Pt 7.835752927191361 8.747712797852445 11.10003136591391
Pt 7.263132207746517 11.14180749495869 9.99904904239748
Pt 10.515890418520756 9.472015076716438 14.57893679127186
Pt 9.429671630091857 11.965987253308775 14.63353070019735
Pt 7.543462012693305 12.390025483999802 12.602335871645137
Pt 5.973098020926416 10.344327931348674 12.14873655580217
Pt 8.175747397406466 9.78899100220482 13.510244868393915
