53
Energy = -271.26018709 eV
Pt 16.141652552111296 14.569797856800351 10.13480718756314
Pt 15.952648207510176 13.836580971512928 12.633018323473118
Pt 16.428408366780467 12.043678906859572 10.690684636629843
Pt 14.951142489344297 16.147708850350423 11.879547157045543
Pt 14.192071282055975 15.339073626477514 14.310189867951387
Pt 14.536156433807685 12.87787755848621 9.004594231431312
Pt 15.927148312053497 11.262528454945093 13.2093905328118
Pt 15.148367269763053 13.018325379116737 14.97598789609855
Pt 16.511617376680015 9.521981681670686 11.379720624628192
Pt 13.399714479073408 13.238507416329746 12.725590278917402
Pt 13.516582414295248 15.144638373360655 9.932718272070739
Pt 12.396722675856724 15.687797719790584 12.32336415475873
Pt 14.920851753171162 10.278864768616065 9.396049308031984
Pt 11.66747024280652 15.025929031009365 14.865076997335906
Pt 13.185265693920774 11.186637848754236 7.6617080550925944
Pt 15.148824001126796 8.723521400639338 13.468372658706606
Pt 14.366035273478968 10.611945180772627 15.298441530484501
Pt 12.685717161300692 12.59071474768529 15.660094084011359
Pt 13.671813466903856 10.811286627118935 11.734068641475496
Pt 10.937169420317801 12.845557928877394 13.423905694067372
Pt 12.734824570030115 8.803450047409843 8.860253475279459
Pt 14.218718826145281 8.239704579519103 10.973292079829392
Pt 12.205730729180136 12.634549758026532 10.54078848845165
Pt 10.89569472809816 14.910348779433038 10.234507703974788
Pt 12.172666607895943 13.72486292794819 8.118763526681585
Pt 9.899470745058514 15.167076217475872 12.68824434221144
Pt 12.142197283906281 10.576369553734665 13.800006280699927
Pt 9.764018709901519 11.879744867263227 11.371888221581159
Pt 10.439882400479224 13.378613584847928 16.63549560853559
Pt 10.8004749459445 11.851584209682507 6.689298269264792
Pt 10.569852161063578 10.815296463503172 15.951870439622407
Pt 11.764036207358224 9.3015362983423 6.460222293219986
Pt 11.8439474743387 7.171033349948459 10.745279064840645
Pt 12.647802354807906 7.866808601999552 13.136706545359678
Pt 9.580649584604704 13.371608613134446 8.497302644036308
Pt 10.95275495483855 10.854023785493789 9.100393961095206
Pt 9.024232202137744 15.057734260053648 15.185425183629814
Pt 13.558252539097312 8.21243661933028 15.528044516199897
Pt 8.752168829760228 12.396533229245248 14.84544354265464
Pt 11.245537971996477 9.74327824852784 11.465372740268661
Pt 8.454342666272222 14.122821125772024 10.798050113838237
Pt 10.967863904815564 8.375439978795564 15.114557931758677
Pt 9.515898299855394 8.261577236617544 10.075777777343793
Pt 9.986889515813695 7.790761169988128 12.665812381170525
Pt 7.510443797303173 14.148365208853429 13.338260228731714
Pt 9.035008982946737 9.905419492477916 14.059253925715907
Pt 8.228415212406265 11.494545622029674 7.293636341555474
Pt 9.526130148473621 9.22961211116828 7.656243007410065
Pt 7.48295440862423 11.526939525557408 12.688694129434694
Pt 6.999405042943287 12.71240798372781 9.177998462942526
Pt 8.065775318631939 10.430421564766421 9.706443006274108
Pt 5.997543214451806 13.238338039600665 11.442227729866131
Pt 7.828037171027699 9.094479780596943 11.903301345957244
