54
Energy = -276.6535141 eV
Pt 15.725277732200018 13.219092140098441 13.175855295760936
Pt 12.145670443699249 16.832276334692253 12.853503407970942
Pt 8.302852790780396 14.452909857225638 10.48522868409564
Pt 14.89083049117262 14.17713729750765 8.610795509230563
Pt 10.585419821740189 6.34281080068147 13.628358874660579
Pt 7.795164456052768 12.656723087612553 14.949397363630759
Pt 13.110864741083885 12.604798989586374 13.172040233102969
Pt 8.63581945964881 7.973967607213811 9.98470713445951
Pt 10.065421199856075 13.876315871548158 15.27253127833217
Pt 11.491411108848945 12.918154482401583 10.240506780587175
Pt 11.233943321886601 10.337492975617137 10.701526145800479
Pt 10.000360169912936 8.646057951885828 14.989065994239443
Pt 11.637146707081108 8.859770296652526 12.79367193417101
Pt 16.71507341196274 12.622613874153625 10.85860771587923
Pt 12.389743045534916 12.569374546491087 15.822830758345477
Pt 13.539707633342216 10.421276889438941 11.828355604403715
Pt 9.272185443620153 12.225828240317428 11.402844832105659
Pt 11.576499935522051 11.025039185122045 8.085884668970817
Pt 12.356509809495048 14.966525188428516 14.61256890144105
Pt 10.550480591641035 15.30559826992524 9.380841470932914
Pt 12.984762051928191 14.742265566196261 11.551658931862706
Pt 15.6314505766685 15.001028702846632 11.056049506102411
Pt 12.54687108009968 7.3892170366923375 14.983959118791033
Pt 14.680004724809223 15.748998536574483 13.476534444333714
Pt 13.11978501755014 6.739742656923919 12.42659522717442
Pt 13.106750208606712 6.9337743852629385 9.782471238011803
Pt 14.844344464534748 8.32600545066637 11.117465892386466
Pt 12.373637331670679 9.998491773803561 15.264392583094036
Pt 10.811706384788945 11.254431389554211 13.211823513443035
Pt 9.789172922331788 16.19868715251773 11.793234211587496
Pt 14.675332487746953 11.323355310075897 14.879779226371028
Pt 14.124267641772615 11.7166060835542 8.059784634390054
Pt 14.053180000003154 12.6021274989767 10.57447030367552
Pt 11.028889865806855 8.47311042998488 8.889424742087712
Pt 14.658713638704063 13.925115548120864 15.428291524944012
Pt 16.012475685347635 10.552946060725134 12.558758507442137
Pt 10.786611710516349 13.878726177495695 12.751047886902304
Pt 10.804769612333875 7.000550464011195 11.056983608569972
Pt 7.636320413106689 10.002424412063617 11.244506093333646
Pt 8.922516235592308 8.13872180712434 12.59335955099757
Pt 12.259161802422353 13.698028210049161 7.915224075550326
Pt 8.328313655219954 14.561569701384732 13.214705670435261
Pt 6.962075944050383 12.265305454479677 12.454351307425926
Pt 7.288638873073864 12.15428887089672 9.65665279833648
Pt 11.577805202400638 17.60511247595223 10.419019364622802
Pt 9.611769453079507 12.940780873071539 8.419432688530364
Pt 14.38687376950741 8.883794500051224 13.820467135025838
Pt 14.246105223250344 17.225294877291315 11.249805399998847
Pt 10.049835924353443 11.252629099928605 15.710771572341784
Pt 15.645628652637008 10.493065950199625 9.841613421029235
Pt 9.127279189193823 10.353804788215857 8.947154164269985
Pt 13.506302149532406 9.307008404577697 8.786396507056951
Pt 8.318178521173644 10.363943082582244 13.834986217738013
Pt 13.117555518459945 15.91095234784282 9.229780575888919
