52
Energy = -266.33634739 eV
Pt 14.361081462531791 8.588968245213175 13.235265158085168
Pt 13.891754020383127 8.074955803779053 10.604045471846378
Pt 15.591077759106078 9.213654253506004 8.850014632746067
Pt 13.092049670985842 8.98715268631164 8.25598393996014
Pt 16.27942703644495 10.444304980145958 13.75394808104107
Pt 12.078744234240013 7.530210995219358 12.389946037305569
Pt 11.253090499553451 7.65626469460323 9.799067697602194
Pt 10.646842761036554 8.34592489445959 14.468628969877741
Pt 14.180244313268506 10.181908626041983 15.280501419068274
Pt 15.737041789298443 9.885556207386731 11.33672110210775
Pt 11.761464634242646 10.00135929742916 16.195205190269075
Pt 15.688182000533565 11.771616259333575 9.48239575142132
Pt 15.981265704177629 12.553909672049922 12.058687590460819
Pt 10.551128880671403 9.222142357464726 7.661740770612643
Pt 9.469995691263735 7.75388396061559 11.975157166008543
Pt 13.33662263963433 10.721222374503062 10.36166654583501
Pt 12.520942867293455 10.995339785627072 6.685355389863985
Pt 9.139109947053944 10.387605769727017 15.768976742072402
Pt 14.988291839533632 12.632673827731223 14.5782752747897
Pt 12.308436913021698 10.215695667178503 13.41531958126812
Pt 11.041553221770037 9.77455565871722 11.19627701454605
Pt 13.371102736951658 12.126792695628282 16.751506714034292
Pt 8.847746719497895 8.998810441904732 9.725364762352344
Pt 8.004112029250798 8.46919832689704 14.166947112607469
Pt 13.475800435093046 12.306902044950208 12.492841143980785
Pt 14.733000981423697 14.094325490571096 10.211449189922314
Pt 9.608606059544641 10.541190000976131 13.23652234497504
Pt 12.832219587419356 14.027844058704757 15.045026233570674
Pt 13.870846498131048 12.803472881764796 8.027155640227589
Pt 11.258950433652634 11.3329744920792 8.902638288531366
Pt 14.41447916644516 14.688917710047807 12.906824253564903
Pt 9.994644835357324 11.895903509593753 6.729130732069307
Pt 11.071999959983911 12.679662852900194 13.292431829958769
Pt 10.877358559199173 12.440395210494026 15.987274610310479
Pt 8.090157554127641 10.303872840582734 7.563206983143062
Pt 6.9557818632402615 10.938417435939947 14.266024954631538
Pt 7.4654403465237325 9.729265156273536 11.900712285968957
Pt 12.22648610805207 13.188755471432147 10.425905667858023
Pt 9.878812840850676 12.123481704838742 10.986344559009536
Pt 13.184301016469837 16.06215780538622 11.008971021660194
Pt 12.003462105169023 13.63153525198166 6.4698368191937705
Pt 8.619791440954582 12.918680820985573 14.712213263737699
Pt 7.593497020109531 11.355298053920135 9.884838445124482
Pt 11.777965896683739 15.389342273352678 13.07220782676244
Pt 10.274376768701988 14.895164956266335 15.155622859852254
Pt 7.5600168677743325 12.53909580132797 12.235704653921779
Pt 7.886445896526445 12.976738548697554 7.8873129536368545
Pt 8.4066203261219 14.135950311037828 10.248058362354604
Pt 12.623740354171586 15.140144747451272 8.61221642997211
Pt 9.20852433374767 14.646327055739835 12.701048747691164
Pt 10.69670757414089 15.407866311151992 10.57467183718317
Pt 10.188411109755767 14.109052032138118 8.312116573762642
