5
Energy = -16.73766552 eV
Pt 11.59800040605202 11.510542385080349 10.457961816686867
Pt 9.290587115844746 7.98982638770248 8.83413347481657
Pt 9.68966506002299 10.051453298273978 9.894133340728732
Pt 9.616666334743801 12.474350483168692 9.408812845137733
Pt 8.019455427613476 6.188201790051129 9.619332866907135
