51
Energy = -259.39475239 eV
Pt 13.965924027194307 12.131883515656392 16.05964667877644
Pt 11.44881939976581 7.713009396317561 15.839825699354446
Pt 12.667613136246707 9.9678948925657 15.861016438187889
Pt 9.89706821003076 10.00550707714604 15.628239209028049
Pt 12.944338753628077 14.318963453394618 15.169664062240058
Pt 9.329152053660163 7.6803885560817315 14.167568605916244
Pt 14.694146781687548 10.388837911454113 14.02992846115199
Pt 11.273379915652379 12.312002238593701 15.812099658044996
Pt 13.222933109600717 8.21121646869348 13.852305960779896
Pt 14.920363342542142 13.055941794191599 13.829371786415969
Pt 12.072438440576082 16.543961161435508 14.194987563755806
Pt 8.863173376653378 12.33831558059747 14.77205485083023
Pt 10.272007025295022 14.61864727689197 14.816504128181647
Pt 11.015150732653266 9.477734949687044 13.360794247993127
Pt 11.397909033651429 6.295404927653074 13.582069231818293
Pt 8.357893779857033 9.957802601250956 13.386153986666395
Pt 12.476406609287327 11.609827648007302 13.442414089713425
Pt 15.705445302692574 11.490456833912509 11.771392360357373
Pt 11.705478376943493 13.98062184785516 12.67587204442152
Pt 14.295292018488274 9.216530226094312 11.659533589748827
Pt 10.374421581368043 5.73851993642589 11.330486814681304
Pt 10.007042310175365 11.955142705024034 12.500050215391717
Pt 14.089028643987454 15.469993165149138 12.935279721748996
Pt 12.102687991457787 7.662821546943837 11.404219753231907
Pt 8.475153099640997 14.308997383496237 12.90878297790445
Pt 9.318953143742933 8.04226716293647 11.449002853031747
Pt 15.238919732959575 10.328060627427066 9.426506816769285
Pt 16.004451643318063 14.186500210281205 11.753888460933323
Pt 13.430742949193082 12.674132809629919 11.242276337286603
Pt 9.746970864184599 16.59203948770589 13.04176180599661
Pt 7.361382946439806 12.080578047436255 12.256336056296474
Pt 7.624843372544208 9.854492654963176 10.876812165375526
Pt 11.009580207539164 13.057257307847618 10.296349866988168
Pt 11.93565009433357 16.324468745055142 11.518353130923382
Pt 12.913661849816663 11.459301339747967 8.969278921076898
Pt 11.62723984798445 10.408955150962827 10.981318251735539
Pt 7.335995175075144 14.094830264536963 10.53788483764159
Pt 13.040480950389963 8.74330345485953 9.331846883798965
Pt 13.979980081305195 15.120764105971697 10.23617387409089
Pt 15.262622202716084 11.951132855487694 7.202729188370262
Pt 15.610128020896793 13.018974963981153 9.51784409021243
Pt 8.491658303959744 11.96396011181101 9.661613511123425
Pt 9.539059713945464 15.478749208557684 10.718441764311867
Pt 10.44841627527188 11.943798082857038 7.868603388769977
Pt 9.222179393884012 14.197809447161832 8.46858769073079
Pt 13.475352900733197 13.785522829599298 7.953916441222709
Pt 9.73434766213306 9.65995483382223 9.327103438429113
Pt 11.650789646602872 15.245772178859728 9.062960711690716
Pt 12.638282105002185 11.812985569488205 6.339117976965652
Pt 11.427393368443738 9.555443488394594 7.389162633035555
Pt 14.05275727514387 9.603659231543658 7.091617837829868
