52
Energy = -265.69259615 eV
Pt 13.077014816990735 9.183866773587852 16.63982459157661
Pt 11.542064871105238 8.169652927182906 14.821411292527452
Pt 10.257250484661155 7.914775907665225 12.41360681656626
Pt 13.002517366170547 7.393351712554586 12.741983127660815
Pt 10.766037255941876 10.241785963743736 16.38935583634465
Pt 11.841517256280362 7.124055915954384 10.414038607873417
Pt 9.198115133993596 9.435077053025799 14.288072797290468
Pt 8.37509756651433 9.718495908830773 11.789096070682032
Pt 8.38782249825217 11.19547069301673 16.129364702879332
Pt 12.891119821632879 11.893132314084367 16.354465950059545
Pt 14.743585016106973 10.42304211001732 15.142526136603326
Pt 14.785499021404092 9.367584605548105 12.7642546993452
Pt 7.8336513775103125 11.66372974675101 13.519066958763101
Pt 10.059885302546867 8.888426080394256 9.912693358994362
Pt 11.965752361635177 9.771849336263262 12.887017920536696
Pt 13.006460966976759 12.035627730491676 13.744075181660625
Pt 14.066458599005982 8.505372252398072 10.405397977585535
Pt 10.480899711736706 12.922489084421766 16.079786241996576
Pt 8.122914464490528 10.349577385182565 9.17905939736627
Pt 12.251962913989155 8.640144974644642 8.396904265009914
Pt 10.42037673238631 11.724250087107729 13.721364303459103
Pt 10.700962076263467 11.416831898629049 11.095958829737063
Pt 8.08797440718535 13.668611209012795 15.249588211070545
Pt 15.050461139521287 13.097494358537762 15.186590322532956
Pt 16.019651930839643 11.564243265294687 13.152110658552713
Pt 15.835027894476545 10.576190057766684 10.605060157134337
Pt 14.511665153219084 10.058804515929358 8.247022653115721
Pt 12.625592449770476 14.292193015765795 15.199261679298322
Pt 8.563268998568452 14.161415516082664 12.713937604400545
Pt 10.163130985042976 15.11511188857852 14.62952209290699
Pt 12.218305368111526 11.39815507150372 8.76080741141261
Pt 10.15011787739338 10.10302170421259 7.507908067297148
Pt 8.17083134580969 12.276753499179591 10.960190082270689
Pt 16.921284243507248 13.984833330314773 13.492420730899987
Pt 13.29459646273248 11.001537706844688 11.05224027559604
Pt 11.352567449485923 13.68690830636298 12.312620941570698
Pt 9.661056560462292 12.463036633913886 8.745732878366905
Pt 12.580130167218536 10.200140500312365 6.353650226377108
Pt 13.840087863859685 13.473310914544307 11.754362165399884
Pt 16.295504621673306 13.173456094603456 11.03129534473719
Pt 14.615446591835275 15.223554564395084 13.644987556329736
Pt 12.212173918035273 16.178839174275765 13.460628228499418
Pt 9.655174315630948 14.4711591556866 10.356310848376436
Pt 11.911124031303357 13.995349518973368 8.75851448596288
Pt 9.859252304278883 16.371916140375827 12.234249114436299
Pt 14.609306610658628 12.515867975582571 9.12566168267851
Pt 11.195547814995349 12.457419540536897 6.5933582873974625
Pt 16.210386334518592 15.719212913402822 11.553207337816378
Pt 14.254438893759792 15.02032468428941 9.73571038694585
Pt 11.868365523681957 15.855003839569333 10.515806350737378
Pt 13.983352946207454 16.95982345695176 11.644372332989382
Pt 11.708588718174529 18.178693379234616 11.799458799363833
