50
Energy = -257.32313565 eV
Pt 12.48915193078507 13.013112949958378 7.740947990359057
Pt 13.238673924504315 10.845639108530836 6.602484992117502
Pt 13.992552961851425 14.310100885387467 9.589826480569702
Pt 14.880409264018041 11.781174604521123 8.421926433109537
Pt 15.815944899805956 12.755936782006478 10.67498877534094
Pt 10.645525981719537 11.3955866019553 6.5566338194218865
Pt 11.66080543640733 8.855084391223217 7.258930329880509
Pt 11.16658957329751 10.67718881094255 9.064799942877892
Pt 14.0412842414126 9.182061725451716 8.435735637536354
Pt 11.702920373281813 15.25825559636815 8.73505865758696
Pt 14.726523906872075 7.579228915270412 10.417284002834151
Pt 14.192614781915825 14.082574891823256 12.288726233520693
Pt 15.49610688080426 10.116543775529838 10.495579798922561
Pt 14.819265602432937 11.498458732276223 12.695369717521714
Pt 9.068007556329754 9.600567745797107 7.758068687366958
Pt 8.090606689571452 11.992810600561574 7.235005204174762
Pt 9.908174946565092 13.50996428984393 8.088946907630726
Pt 12.68872436073632 9.519031639443737 10.853340413322005
Pt 13.119867691905435 11.975709872854075 10.31647638954306
Pt 9.935827827949002 7.247909947197608 8.410916028184829
Pt 12.368474342102852 7.244360386660018 9.31787910812547
Pt 9.644089783332992 14.912080618043175 10.286519713485596
Pt 9.63700045160413 12.168400836531017 10.49901467952059
Pt 12.629034764205834 7.055333099613527 12.01877478408984
Pt 12.072913723157342 15.41687151808616 11.298394748407201
Pt 11.569627769521977 12.935032003741146 12.12702238572766
Pt 8.055746528868712 8.362507243939485 9.897128877275282
Pt 14.528094552589536 8.845419174834666 12.716321463826763
Pt 7.444188694605486 13.579415264239707 9.36503037954522
Pt 10.175937841698888 6.979904352809612 10.965190571600697
Pt 11.94801466615893 10.521816981902086 13.077328422656269
Pt 9.942527869918596 15.04161447772008 12.972035762167582
Pt 7.410710079479753 10.906883192014238 9.454220855874294
Pt 12.397017298222783 15.161920452263557 13.88971738671469
Pt 10.03224118524052 9.560107546008254 11.178590115120093
Pt 7.612859883412177 14.726554102746597 11.811496719625879
Pt 13.265343754080853 12.78548495892404 14.460754988045235
Pt 7.045356910480503 12.233574628874877 11.732093479325728
Pt 14.110957209955059 10.334849998886872 14.896710436600062
Pt 9.592926941939085 11.553679246036301 13.002299212098276
Pt 12.41868395200335 8.385047000381853 14.41808727932969
Pt 6.507468606097557 9.699695789441435 11.555751844615873
Pt 8.35892333881035 8.258552172057211 12.66362017161692
Pt 10.460557868169678 6.954315853925781 13.524599970682335
Pt 10.71667638018146 13.413397672449255 14.953666453492023
Pt 8.079377459056909 13.353646090499339 14.031078148138581
Pt 11.66368556529261 10.95139898585219 15.64565954951274
Pt 7.426177065163282 10.541724384004967 13.858148043230045
Pt 9.782106932270352 9.1227322836012 14.77079982074628
Pt 9.105864705965667 11.478902772721503 15.65318314273457
