5
Energy = -15.8037555 eV
Pt 13.383004368802276 10.514872067916247 12.25351969200149
Pt 15.283526074308066 9.327773606946195 12.83482185673498
Pt 8.089460697938847 14.279230273177578 9.995733250513311
Pt 9.756131106866771 12.946015510330195 10.893713183348586
Pt 11.496763541313868 11.683362866538845 11.68160272882708
