53
Energy = -270.90029498 eV
Pt 8.412729075107931 15.12279974433175 10.411999628815268
Pt 10.571034687298546 10.9564987634157 13.566243859816772
Pt 14.534438406427544 7.81104955634957 8.21934388647466
Pt 12.246601849146733 14.729565484688846 12.555085174054744
Pt 10.223188391683506 12.746389305968533 16.22276822838663
Pt 6.492823231582404 11.629055357527884 12.802332701111292
Pt 9.227740999478794 8.077774290903113 12.252712483125938
Pt 11.746874288944461 7.443520884032431 12.660999289856312
Pt 14.465991792605724 7.80946033169105 12.654406110198023
Pt 6.912958852278642 14.226143722829239 8.34776370154562
Pt 10.6499542366389 7.1021828194898085 10.267425367995918
Pt 14.031815079683838 11.116633766980339 14.653227370914088
Pt 11.76709025403184 10.6307816376233 15.87783509758309
Pt 8.081413421657942 7.801430282925992 9.888622009636746
Pt 15.109478152249142 9.175506505781122 10.381848917358322
Pt 10.107200738528428 14.498345263074269 14.211534591473193
Pt 10.316711818786855 12.984446466357609 11.922368446743905
Pt 8.757619567070394 10.813458332581307 11.766691571562268
Pt 14.547394611696625 13.013423237180877 8.04318654612749
Pt 12.121452174004613 13.948751300146352 8.066206103039914
Pt 9.927973188356784 9.694409043875078 9.804048684029617
Pt 8.37961960693358 12.129832623387738 14.567308896561133
Pt 12.553711191209219 11.965077777898188 11.063288887250126
Pt 12.140902646764408 6.620034674501988 8.138990635280358
Pt 15.581429301623352 8.985163611882909 14.675099726197223
Pt 6.706126060902921 13.048679319433742 10.654380638822518
Pt 12.253847257181251 12.971451291998584 14.520123136563212
Pt 10.336732554958372 8.587058549693056 14.595221259050556
Pt 10.212583719188434 10.47719273383805 6.666054732216309
Pt 6.147370423192865 11.651342934225681 8.55989671318165
Pt 10.552293914941961 13.020650452724162 6.146330889114966
Pt 8.26326248194361 12.22061342738247 7.154769178425351
Pt 9.129729733756056 10.290042620983304 16.26281263497097
Pt 12.985784887928597 8.489872447573541 14.850207954234186
Pt 12.496963433009068 9.452513820107317 10.059547320067546
Pt 9.907934410465742 8.057111459196218 7.777996762730487
Pt 12.760669429506141 11.595072757553881 6.627444025773833
Pt 13.309079480455404 7.031908436371713 10.493635114203759
Pt 9.103528195377965 12.384899292681968 9.699114227032407
Pt 14.259789288568161 12.955036589308815 12.724698857380874
Pt 14.651235175378888 10.422798126291617 8.049260402932234
Pt 7.885057779738892 9.752835840451375 8.062366918235343
Pt 12.734574880069475 9.912866263457412 12.61019022338136
Pt 12.381097559103766 9.077813180330704 7.367163174118503
Pt 11.014285414962279 14.989566305284571 10.27496804535775
Pt 15.507287324420279 10.565587910993823 12.548142529210912
Pt 11.352749529160018 11.573386639497159 8.823392437609934
Pt 7.957087169917344 13.961985937632345 12.753368063065889
Pt 13.5651328586726 14.187661263260347 10.290474585798142
Pt 7.852667520349963 9.540014607061705 13.971269780870974
Pt 15.086759432057217 11.839247474275561 10.32833402815432
Pt 6.667777939892096 9.980551656930807 10.537733673417641
Pt 9.553404004174034 14.473463299099897 8.11272420200434
