54
Energy = -275.18332582 eV
Pt 16.461339911064247 15.11274686732301 10.586581872638279
Pt 15.44661549133046 14.048900869692973 8.350325483091405
Pt 11.56742935527141 16.45725138871218 9.902008992434011
Pt 14.010040917576799 16.844920113866035 14.393777584540883
Pt 10.403647280571878 14.264530506659703 9.311090260100107
Pt 13.961164405636294 15.578348415049172 9.912240067531856
Pt 12.79033291932871 16.446797889223895 12.157547687824259
Pt 14.993994415540751 15.021906043591454 12.811582005032715
Pt 17.30566215419349 12.70664004993148 9.677035759286019
Pt 17.02052901660605 13.150764712272043 12.256920163412037
Pt 12.879439776173284 13.415463357452609 8.669755633427082
Pt 11.508014381952703 16.0759818779492 14.454930009893028
Pt 14.644292144165176 13.082311688336814 10.96253913752083
Pt 8.193104087156218 14.27482104506003 10.888588459931674
Pt 9.998377911138315 12.417585108508211 11.533384057367641
Pt 8.695401351853938 12.204329362497491 9.262795796314892
Pt 15.067373980115413 11.479430671586922 8.843784507919779
Pt 10.162125211129167 15.769161778821456 12.053667539839253
Pt 10.789916852727272 12.308070073584625 7.679229220433431
Pt 13.626814932371527 14.38203813402579 15.16573518713783
Pt 12.132193625687034 13.884884861440083 11.398423720971858
Pt 7.722390844261379 15.829816640948234 12.942699316729275
Pt 13.452481813084123 12.499361314244076 13.28184860212133
Pt 16.080902497432355 10.832981030089641 11.190143344732618
Pt 9.157077356642828 15.182317795134093 14.978256983821927
Pt 12.679307048442853 10.648460714441327 8.345241759608347
Pt 12.721768929560346 11.27470446078723 10.930855619424364
Pt 16.902565076872804 10.900056576700047 13.623940137309726
Pt 15.868956582732666 13.197519413727477 14.601193666227717
Pt 10.097576662381712 9.983028495368773 8.579267553314647
Pt 14.299697313421667 9.254559272222656 10.14622482863878
Pt 14.628127146012883 9.393671468574434 12.849462733143458
Pt 12.476688665120706 11.99990415546533 15.745555558246677
Pt 11.245834984549939 14.324421639185278 16.379212961554643
Pt 10.888349818873207 13.41401281766601 13.774215901452125
Pt 11.059831134761975 9.311124007433813 10.984230275632754
Pt 8.042134328092851 13.24979545522796 13.46021228272563
Pt 7.6460766247260805 9.774163899645623 9.58617437330474
Pt 12.089414452321323 8.18391305561979 8.909239766583868
Pt 7.5969421229670635 11.441781331646382 11.617878986576635
Pt 11.274709763463626 10.866467206397148 13.139954364292677
Pt 14.719043647588315 10.926973610046351 14.97410394900144
Pt 10.770619736399281 12.102776621083853 17.736550360466808
Pt 8.568938451410029 8.99479163490136 11.963410248699576
Pt 9.249564957745863 7.7309766786266385 9.612448892992443
Pt 8.700359786622025 10.721422778507243 13.937789736324131
Pt 13.477426427864426 6.806953530441773 10.63726518168225
Pt 12.47445045576604 7.909585951342133 12.65630919185175
Pt 9.17235946587666 12.606604862028425 15.727936262681283
Pt 10.413925691158873 10.234181856303703 15.97555510805814
Pt 11.163820926053551 5.89616330556092 9.783453972668822
Pt 10.138993861319284 6.827482876249251 11.990488018254144
Pt 12.651184722915255 9.376250436178886 14.800170522234792
Pt 10.176852407865173 8.461043228566455 14.036401353608062
