51
Energy = -261.37224164 eV
Pt 13.146767165539503 9.957066706109067 15.834196832241169
Pt 11.038941167590773 8.937357317635476 14.541822351097494
Pt 13.473058817269102 8.341791099053921 13.73380349092332
Pt 10.886277440135217 11.354942389517488 15.885075927177883
Pt 15.442545900459207 10.113628239813742 14.329243061159248
Pt 8.71868757079827 10.021550649193564 15.168314127508115
Pt 11.329807485950656 7.546997996931389 12.186826442017354
Pt 13.04210144133741 12.595566955601592 16.593379731674364
Pt 13.834611031678016 7.149917623633037 11.411974907981032
Pt 9.047369594126033 8.788897759365506 12.786270201878091
Pt 13.213488402721763 11.364166115353555 13.692455914232099
Pt 15.122767879829746 9.439388333732587 11.789576677776985
Pt 10.460087456964825 11.227411925345843 13.195395385421811
Pt 11.112232215542054 14.015595089591626 15.390782087674005
Pt 15.037404666524226 12.6842609787389 14.869442536341165
Pt 9.49468902587617 8.035541200480347 10.246894750764383
Pt 7.443199270031136 10.990556034631126 13.154957257297154
Pt 11.958192284491382 7.131953331813266 9.549756190601675
Pt 8.885273168996347 12.693539730749746 14.753209896498271
Pt 9.863024031018606 10.589859589216376 10.774356731027062
Pt 15.876819831212435 11.93539566145191 12.3977414389742
Pt 11.781168955391129 9.737822180425685 9.207145466629852
Pt 14.250264939131021 8.85305459471954 9.410942569913837
Pt 12.35529056503345 9.884905934740901 11.730733990757797
Pt 13.577193135361489 14.842390806639374 15.18859195140502
Pt 13.417552532780375 12.225459629601719 11.230565258939594
Pt 15.35427447386575 11.24267228098761 9.77771309484169
Pt 9.78130128065104 13.071815058840613 11.3552683929409
Pt 11.878828642285693 13.416257852298807 12.983749665296093
Pt 14.595511738670913 14.393049046662385 12.862814191194964
Pt 12.843222052116309 8.275084159570243 7.189707623146917
Pt 7.418029004138083 9.705765107403952 10.751801258573584
Pt 7.5869101860313535 13.593026144578033 12.63609199605897
Pt 13.676303671152896 10.806619410649736 7.71306921900052
Pt 8.90324019275293 9.994062024352578 8.364778393586894
Pt 6.0637496935851125 11.99620877316109 11.263930105909518
Pt 15.668128135321542 13.803407565568609 10.53025483507046
Pt 12.336441765831392 15.933954725269432 13.051732199397705
Pt 11.462616517073231 12.292230429510964 9.55389256206489
Pt 8.928853064740878 14.487084746596768 9.306060037782633
Pt 11.055003207888145 10.333432975884406 6.731695037805823
Pt 10.254107325413525 7.874781798282269 7.623781027420541
Pt 9.63052696478438 15.031166007493255 13.498951067311863
Pt 13.915002803111157 13.328715656220957 8.667461148257672
Pt 12.184247835553226 12.77392276869541 6.767475472381171
Pt 13.24489439695894 15.02897724984512 10.638042092520074
Pt 7.8193729098797835 12.116866473596627 9.42525645961617
Pt 10.723839306643008 15.597428471052302 10.971516242630459
Pt 8.123665203014982 15.805949709982235 11.420450575660368
Pt 9.694947392337495 12.513344190268276 7.673906504352536
Pt 11.530782823578415 14.657223368723143 8.608940345851263
