5
Energy = -16.45415416 eV
Pt 11.518082060345863 11.89381700234213 11.917084851620142
Pt 11.79908360951124 9.959187074957947 8.04614837094066
Pt 10.913706359927977 10.22685998452612 10.192843644636445
Pt 9.375713357511147 10.616356950598188 12.044888626605092
Pt 12.424793851515973 12.853721203054238 13.83062105995847
