52
Energy = -268.06332046 eV
Pt 9.40217356721423 11.262929130226464 12.464799101017372
Pt 6.935584358200325 11.26343672385456 13.935199448840168
Pt 11.269715106547036 11.26390195739093 9.274565616753064
Pt 9.005856513928729 9.917131867598373 14.889573098814157
Pt 9.006381699477178 12.609656922113064 14.889701661077442
Pt 11.26508687189958 12.932790036413849 13.002704735829655
Pt 11.263019729519689 13.860021075154267 15.599052610194255
Pt 11.264891390945069 9.594568102107583 13.001041248800941
Pt 11.263102582927894 8.66603769089625 15.598501862617484
Pt 15.532235942708198 11.2639290409097 11.24851460833924
Pt 13.126597495047474 11.262871661375765 12.455162653048223
Pt 11.261828040388394 11.263733124932621 15.508512820409043
Pt 12.712181778506341 7.567940022467709 13.676321185570302
Pt 13.51767703759504 9.917533830255529 14.886045078287665
Pt 14.99491796546694 13.534444549083744 9.944743102060656
Pt 8.655522835910997 15.521460264964485 11.391834268979824
Pt 9.93354735051351 13.014557040873763 10.662424982454356
Pt 11.260478898967872 15.655365768205039 11.400186303198442
Pt 9.816034310314027 14.958363183043188 13.676853644649757
Pt 12.711085589208448 14.958770235645922 13.677101390130586
Pt 12.581153705623983 15.069379979884518 9.123856583733733
Pt 12.596244016293717 13.022469884369754 10.65776101737114
Pt 13.865459933499983 15.514838918991208 11.389500207389718
Pt 14.811329435597111 13.466441571779667 12.65681073452292
Pt 15.589223017346091 11.263709915895744 13.93685413340573
Pt 7.717805603378797 13.464997235715424 12.65490741185333
Pt 13.517018037649 12.609456530236212 14.885915475137685
Pt 7.716720453230702 9.062115852228942 12.654720832389838
Pt 9.899250570320918 11.261693977263572 7.065021998377781
Pt 7.536576089943445 13.535325080512376 9.944590523959505
Pt 7.756142794635594 11.262940654598552 8.680927640512673
Pt 9.940188233059471 15.06248108143139 9.128942568733594
Pt 8.613466560897317 9.048682007046656 7.50429657159023
Pt 11.263938279951411 13.5300310670043 7.370061826232441
Pt 8.614562941246458 13.476217326847665 7.504288336367123
Pt 6.995341352141639 11.263657650529021 11.247265822720122
Pt 14.767418753937463 11.26311098757861 8.680091487847282
Pt 12.597081689313935 9.5044765527792 10.656513397516253
Pt 13.91013891694487 13.477436476267428 7.507354025291481
Pt 9.932827115914595 9.512565000261986 10.661367251011455
Pt 9.940266939424413 7.463160602044924 9.129304000872228
Pt 12.627355490906526 11.261692277575888 7.061614389523607
Pt 14.812590762686165 9.060981881486233 12.656858885809891
Pt 9.814935810843588 7.568062719753411 13.676049035542773
Pt 14.996397849673132 8.993040075714179 9.945005575020911
Pt 12.581082361188377 7.456184665025731 9.124084554091535
Pt 13.865659278470142 7.012528281615287 11.388504501325261
Pt 8.65538130531735 7.005519812796648 11.390801612684484
Pt 11.260558677124557 6.868830731834343 11.399295924084946
Pt 11.263989218508094 8.993964705461039 7.3672213281935095
Pt 7.535323254278743 8.991752360305592 9.944604304232294
Pt 13.91133657128798 9.047495907652008 7.507452492699303
