55
Energy = -283.25385729 eV
Pt 13.932939657623029 14.20072979463546 13.75475623611549
Pt 9.565933600475379 10.231109628274218 12.908578212760512
Pt 13.647709497272102 10.094923487019793 16.205860640612396
Pt 9.463411052143648 14.265252357478195 15.15597163808141
Pt 13.986465072141108 12.876452437757623 11.386781384128511
Pt 13.823162709871816 12.876676970343702 16.116032149444848
Pt 13.876878490414905 16.879212254839555 13.877949612236053
Pt 14.24995496484196 16.009151244187947 11.347051259335709
Pt 15.98410440444499 16.804209665114694 15.43184886885598
Pt 13.913284300873928 11.54224348422435 13.740168066778269
Pt 14.211031047993826 9.76054600771843 11.334463856318017
Pt 11.476794514138161 14.337701321999269 16.877112026337674
Pt 9.45381762013799 11.48269491203266 15.157976418056213
Pt 16.238108285236653 14.258245401125622 10.899332407578006
Pt 9.380204360082411 12.87219865745105 17.374072372678874
Pt 13.85945350905923 8.851921532036421 13.84103839381204
Pt 16.23965241483083 11.49422669111012 10.881555610753708
Pt 16.35444666102301 11.567209604045745 15.392828602368263
Pt 11.707761543408461 12.87064302150987 14.44275386401758
Pt 9.37377362075191 14.207744716534032 10.623604138009464
Pt 15.967695053409333 8.920632030744125 15.38283308479379
Pt 11.528506780567355 15.96721560160863 14.715972183343833
Pt 9.40445494076049 11.598884949569868 10.608605178640644
Pt 13.636996528241122 15.650947159091151 16.24111414753783
Pt 11.519367509951966 9.790978301261212 14.707602519116548
Pt 11.95078344972127 13.163787100789442 9.452551878311189
Pt 16.36382702654106 14.160282790085661 15.407006362315574
Pt 16.690158005145193 12.870207851834484 13.129584706716205
Pt 16.29493084170686 12.893774322797704 8.63615548604152
Pt 9.62008622651302 12.89642332448447 8.30131965312189
Pt 16.1892980835034 15.512644457420318 13.143560190837594
Pt 12.118502938864244 15.859943311530227 9.80353181608372
Pt 10.059857235450792 15.464521201791774 8.327899748367336
Pt 16.167390620864598 10.231369722653655 13.116294056304394
Pt 9.787356856781358 16.844552295018254 10.621885688849225
Pt 9.898349007002865 10.307553045101784 8.320371868054668
Pt 11.791609533200369 14.206340179847848 12.0638902067703
Pt 12.091738922922914 9.963460006331552 9.801458657285623
Pt 11.623138053190733 13.916154960959616 6.870287348284215
Pt 11.872003770699267 16.87945266644018 12.260171520319773
Pt 9.769497467138672 8.943986784277968 10.633815564010678
Pt 12.11425554693156 11.375711832152643 7.534917592731822
Pt 11.787223793225621 11.562501160569097 12.022948435106917
Pt 14.23558288848718 14.5345478199354 9.142115451648266
Pt 14.10136619864712 12.996608987745958 7.077055990301049
Pt 11.848044209488517 8.865505412591546 12.23745220090419
Pt 14.253011199552045 11.251360062667995 9.143527220146701
Pt 15.923708858285618 12.85796389803371 17.719270154896254
Pt 9.181719609216644 12.86698424134339 12.89194109402647
Pt 11.487742647765307 11.407104956907778 16.865503242974484
Pt 15.771565065026719 15.425931963879904 17.710469773072806
Pt 9.576427310310729 15.525470858311019 12.913908996726995
Pt 13.532585734419415 14.172359074559633 18.5102805408047
Pt 15.777787528535857 10.287287535308623 17.684267049061926
Pt 13.560732640630478 11.58064635237786 18.486884043675424
