50
Energy = -254.68350527 eV
Pt 7.2765425593476865 13.399554048049367 8.43972085621511
Pt 8.323057030602055 14.598951358333823 10.570179534713882
Pt 10.017004826942733 16.56353785081881 10.009805223522276
Pt 9.607580413573455 14.685777790670489 8.192279289757025
Pt 7.187733518145126 12.234742379749118 10.945802378390539
Pt 8.365783832954214 13.432655051435933 12.991191053651665
Pt 7.587120464758471 10.821151218352563 8.598248992759775
Pt 7.795893288501587 10.829740593307031 13.077121121301989
Pt 10.079258570739498 15.48749990945633 12.351259719688164
Pt 11.947332227472462 15.873899634143223 8.272422124628697
Pt 9.426057226603495 12.203001243015375 7.295163549922757
Pt 9.603607959521224 12.293050169013151 9.943207596288119
Pt 8.330827895298611 8.342352946631054 8.723643184964008
Pt 7.032263028555686 9.51230265433531 10.850669113153058
Pt 11.684102100580256 13.667746079394105 9.848999028804295
Pt 9.421680050606717 11.883969639756145 14.962851475553222
Pt 12.428727861360043 15.857330417078256 10.994210285581492
Pt 9.540934421513455 9.851369386273397 10.546282497215559
Pt 11.885952551857866 13.263031924419188 7.337311093940616
Pt 10.864526695823171 12.879102265762109 12.194648325382689
Pt 8.733241504788976 9.391464693402208 15.153155964742032
Pt 10.14999744445055 14.409521400913627 14.69361577831559
Pt 11.379409210856307 10.751375111755403 8.256496966248008
Pt 7.722720199040108 8.193200202602021 13.040726652683391
Pt 10.497686261727072 10.448605671795287 12.860527659033185
Pt 13.164052904363803 11.978051315493381 11.18079698074345
Pt 11.96992813298941 12.582844827187756 14.987494506791904
Pt 12.498887469929048 14.653871456663683 13.368840088777063
Pt 14.037715033609404 14.525015861819226 9.040271464016463
Pt 12.071921526156391 9.633836075178582 10.912332289141894
Pt 10.935016777142339 8.051518923865977 8.979253756671245
Pt 13.80695631897326 11.848365034731325 8.557161186758464
Pt 13.498448553355116 9.23147898787944 8.774262439635145
Pt 10.278211659171625 7.908956984857564 13.575955001771748
Pt 9.278820147171452 7.358528928345614 11.057184333857208
Pt 11.358120276122444 9.906203669951338 15.349885944166386
Pt 13.101307824205946 10.32732703134174 13.136283950889732
Pt 15.246500400284912 10.42454677743848 10.390355403794262
Pt 13.831244081998733 10.862321285780459 15.523147224472568
Pt 14.408511272683569 13.073431359736452 14.10432647921557
Pt 14.464650341126092 14.225638714577054 11.707785101565417
Pt 11.81811653003989 7.071792296826644 11.664333998124107
Pt 15.920497072953026 12.935812166624505 9.790387434602017
Pt 13.091162058937195 6.703180442727876 9.377412170480106
Pt 12.88440424557535 7.871096664973547 13.91699098553344
Pt 14.985305851196097 8.589169303765871 15.172644771570937
Pt 16.295725719509544 11.392503387085643 14.698148690438405
Pt 15.57386354800114 9.635289881552149 12.913815659101992
Pt 16.138281037723527 12.174417681885117 12.223419365424325
Pt 14.277300509221567 8.099234112419833 11.303920283545711
