50
Energy = -254.05538908 eV
Pt 6.913629914647538 10.463176320613552 10.934176470984333
Pt 8.00585401361492 12.903505166678427 10.659727861192518
Pt 10.099657576454485 13.20833166007713 9.014524645016584
Pt 9.227723283644606 15.201212990579068 10.578545724026126
Pt 6.269607348234353 9.455896028239591 13.260921170506732
Pt 8.16268314017631 8.373428256982606 9.865698721329156
Pt 10.6668792340986 17.434070777323303 10.472145019970135
Pt 9.016371920829448 10.800926967913961 9.33224246570029
Pt 9.334623866927528 10.23316626938836 12.00056892890358
Pt 10.456421439236259 16.123461953707938 12.785869628904642
Pt 11.582709873558267 15.49225648272673 9.020011099939001
Pt 8.247346025578635 7.921745776723007 12.460193145993314
Pt 7.555378188346468 11.798212614097288 13.172236160699217
Pt 10.422730972317565 8.65738483988962 8.455551411573497
Pt 9.111285678585968 13.892843945984968 12.92368796639584
Pt 12.489944938779058 13.414165812783322 7.783890074005395
Pt 10.76729549197659 12.335027076120449 11.551565924856995
Pt 12.01149251634425 14.547023536299996 11.389815553330628
Pt 11.360729749348932 11.057166705410296 8.063873180987464
Pt 8.541802055140838 9.662087738619062 14.591622723147099
Pt 11.98174689775788 18.27161187432876 12.610678703660925
Pt 14.228143592272277 14.782131314161315 9.51963376355642
Pt 10.502880391384242 7.81434208864427 11.051877275572558
Pt 13.304192857501858 16.759065900374832 10.965833683687999
Pt 11.77788856086981 10.187949200488285 10.579618648971756
Pt 14.952579281668502 12.61764735441365 8.084517614987831
Pt 12.774589470268626 8.058495194733839 9.541433587816027
Pt 9.805915742524217 12.0413862212164 14.61790664982022
Pt 13.073260456997225 12.429247089191314 10.200383340953572
Pt 13.00370189293118 16.150560912964266 13.75948489619569
Pt 15.761056068882658 12.906594684149436 10.649776457752182
Pt 13.84483209514356 10.341663821680948 8.6328549863029
Pt 10.62341489304064 8.109174439269117 13.703537153472777
Pt 14.736595075002194 14.799331039594055 12.165431720268884
Pt 11.279393658737296 14.208974584623876 14.426368364792689
Pt 10.757658492201374 9.87493970841336 15.903960741823358
Pt 11.746391481767398 10.55732771724236 13.258928631612827
Pt 13.26429878120962 12.596912408546535 12.777973487282493
Pt 12.93122294385393 8.191931275742991 12.23768664935837
Pt 16.38771384487803 10.707924276430054 9.249036659903613
Pt 14.90015962827018 9.07479906421264 10.717952389668886
Pt 12.225117289958623 12.146563547669192 15.728213850558932
Pt 12.928393152527587 8.778924119119033 14.765299135713036
Pt 13.951472168066857 14.004632691063204 14.861559896518914
Pt 15.849215080026038 12.756232839527796 13.344948715117592
Pt 14.62543309545017 11.331218700002244 15.195330507432653
Pt 16.688114861892256 10.72002075846337 11.792687592737002
Pt 14.96059996864858 9.405155004066705 13.323103605076478
Pt 13.193515507920115 10.052847274907423 16.97446647883823
Pt 17.001729104429295 10.652697538522043 14.348040497005622
