51
Energy = -259.8842719 eV
Pt 14.099871882170165 14.135451503158187 8.579489277092547
Pt 13.623104048699327 12.662248402901 6.3118149497595555
Pt 10.209254276482074 13.764667779312495 6.724784017499653
Pt 11.59014104063366 15.196361022538907 8.603657888180104
Pt 14.557367825076508 11.399378460402202 8.48872573234111
Pt 13.104812058393673 15.251010106482656 10.786369380216174
Pt 15.244093295140985 12.856752217772032 10.590611402397275
Pt 11.956457319610507 12.609375034391189 8.24506844002538
Pt 14.487037410864538 14.207115009172202 12.872963048729174
Pt 13.398621641533898 10.017260251574804 6.62435909710179
Pt 9.09558454779002 14.020824257671427 8.99681917388085
Pt 10.999438850261374 11.282167673017863 6.328304689795028
Pt 10.416992069618935 15.499321388167413 10.95646193601541
Pt 12.00961601387557 15.438881695272935 13.166595882233944
Pt 12.702182557842669 12.7181740082567 10.944364500351668
Pt 15.049141351786366 10.136212696271393 10.728815565340334
Pt 15.40956702067526 11.640500182478254 12.873866833609624
Pt 15.235346671068138 12.967637556915871 15.141972206045374
Pt 13.396945071647744 14.828095731818676 15.297696495261148
Pt 11.336440763943097 8.957441103111417 7.655399940705421
Pt 9.38792623533468 15.22204775958936 13.448329607797351
Pt 9.059313196255122 10.44598251354482 7.930218260007191
Pt 13.821793075660997 8.46500312210511 8.879625365431004
Pt 12.419273541693606 12.664854686378982 13.56760341000518
Pt 12.333834755627494 10.411302952173275 9.636625507202377
Pt 8.068344521419334 14.161464794654465 11.373922104917773
Pt 10.121197709235028 11.778066286486618 9.885091782860034
Pt 12.805252585567885 10.379485631264012 12.38089798709055
Pt 15.374017021547136 8.996035979899832 13.121553326418205
Pt 14.209372851862739 10.570035992276063 14.919858793419666
Pt 12.804883046839107 12.37447088398523 16.204115366019504
Pt 7.5899663215731445 11.9381757310876 9.886414219750272
Pt 10.860049015761012 14.021358120428687 15.302858300085042
Pt 10.347031019356995 13.177399273216398 12.056866845073987
Pt 7.55281600498926 10.894772803995313 12.330191426447099
Pt 13.52118318163712 7.9651565909438915 11.51027611674946
Pt 10.52419270369522 9.597769096260883 11.268867601708045
Pt 9.198667899662578 7.826391193347639 8.465165117446084
Pt 12.272675971267581 9.759722960421088 16.4619255095655
Pt 8.621438531967094 12.929055214695644 14.533618018207079
Pt 10.403321221719825 10.98130622250411 13.425146925417172
Pt 11.512738323308476 7.459645218756234 9.879223546680594
Pt 12.947180372786818 8.42081583128035 14.160138364844201
Pt 8.075651933939461 9.368708619395738 10.269870817430949
Pt 10.308339074672363 11.472706879849222 15.96234018776901
Pt 6.536532686447001 13.076228233487647 13.059449735001788
Pt 8.153378259561523 10.313040356590422 14.833538307496859
Pt 11.082994953474874 7.400314346623686 12.591882738143754
Pt 9.087745408789928 6.965525622382646 10.890430031712354
Pt 8.615225677154582 8.548303529137979 12.921616707284757
Pt 10.429125241653207 8.80263424423212 14.856704339960814
