53
Energy = -270.54384783 eV
Pt 10.101631177995241 10.49954823309064 6.459392531480889
Pt 12.17044502637418 11.977670313499695 7.188162879955661
Pt 7.70675097569799 10.97214374220748 7.556483598343388
Pt 12.58420636412126 9.691822030856484 6.027473682961008
Pt 8.294389481560746 8.556713401271578 6.439215896154838
Pt 10.907316968794275 7.826826661364775 6.767519950516485
Pt 11.93116595954594 14.463726701524495 7.971714513042114
Pt 9.738878544149966 13.003798998255581 7.28035997780502
Pt 14.409573178499173 10.613655943520065 7.671837653827996
Pt 6.604540525611725 8.708213011289386 8.511066841543778
Pt 12.72998449454019 11.279689935877203 10.225229945948577
Pt 13.473202639972106 7.866579421728535 7.687172218241583
Pt 9.077725231180946 9.099925975395118 8.954953576295642
Pt 9.035959003676751 6.639824908820317 8.153038608787057
Pt 14.20116594700696 12.985758218726744 8.604528824163618
Pt 7.836347854670674 12.981581838296082 9.177550170856112
Pt 11.631326327440481 9.425619801211718 8.811647952728732
Pt 11.528575302324787 16.332073017961367 10.370394817914933
Pt 11.507369915572065 6.45673050525539 9.039193441729868
Pt 10.064857080649444 11.54245433792351 9.439716534957268
Pt 13.923668298191858 6.608662118098718 9.969973105344192
Pt 13.894697668747433 15.217470177368396 9.942605954545353
Pt 9.605222300278964 14.864963701473158 9.320077318086437
Pt 6.996695989287664 6.325275912218617 9.764753040054254
Pt 14.349119557520739 9.194861482646495 9.836740958765738
Pt 6.493517116801137 8.419125394676362 11.108835107518964
Pt 11.669901115964924 13.62503039011266 10.360045988126448
Pt 10.6605891779501 8.357953202083712 11.06827599167258
Pt 9.459512520765937 6.000499186828029 10.67963096550824
Pt 6.501243314945426 10.915435566739411 10.142108591437706
Pt 7.801189054313632 14.502193871288423 11.250467670276542
Pt 7.501911686192424 6.4712627203310165 12.437329816524977
Pt 14.736621788271686 10.602139820453685 12.061530947706915
Pt 5.8320357111097785 10.169420323985955 12.788128704619092
Pt 11.297176009178196 10.587141437068258 12.286385582961284
Pt 11.947906994377039 6.157184806281854 11.676446760658813
Pt 10.006736347030094 15.444420901657756 12.295603988135655
Pt 9.790619759644864 12.692119041853635 11.83564859411382
Pt 14.407079229890007 13.038680576608519 11.296312718216104
Pt 12.663078851150031 14.813629842523426 12.428755100124917
Pt 13.073718177862684 12.327989776751275 13.435885574584388
Pt 7.101099472747948 12.278729835970967 12.348538867187282
Pt 8.807496932562128 10.19293365992021 11.358770724012953
Pt 13.693083652767234 8.152770086329843 12.089149644586715
Pt 9.859338925319038 6.995714826238364 13.223594052854166
Pt 7.991054496145488 8.923530747267645 13.529262543578263
Pt 8.288832751561666 14.113139162590466 13.879396705814932
Pt 13.059252031653738 9.774433573113646 13.997760681281916
Pt 12.24616198268673 7.265531610550927 14.122397462672026
Pt 10.88919139980343 13.678573028687358 14.034413364350433
Pt 8.943360450064505 11.442916434811716 14.146338536284006
Pt 11.36663316090616 11.513153789424122 15.300292175813771
Pt 10.437549669223268 9.23946359027039 14.478596739628136
