51
Energy = -261.78457095 eV
Pt 9.019441886889531 10.362528894452364 7.475117495916062
Pt 10.467515188437725 12.465896152901436 6.397815815996846
Pt 11.64527465689823 10.239519832378619 7.2580428193206075
Pt 8.863860867976504 12.755384885227123 8.41100875787364
Pt 8.246012467705759 10.431542579775627 10.077549584074436
Pt 10.31127081527016 8.943857764952664 9.193480745150776
Pt 10.961174772896824 14.557546811953632 7.996623950062506
Pt 11.05253620569029 11.724207895603502 9.515148452818533
Pt 7.534148228357467 12.976231669645331 10.62930871132512
Pt 12.73284912694607 12.66789731604054 7.732542302948209
Pt 9.251971152749942 14.862183945653241 9.918537033056873
Pt 13.002988121752505 8.635627277450709 8.9086901694091
Pt 9.550071364532883 8.63268952177786 11.736291203830405
Pt 11.575365810494876 7.283857632249999 10.668919242736283
Pt 11.350437005597403 10.269468858478067 12.616363886986935
Pt 14.234927649119408 10.533498569459283 7.593191622150798
Pt 7.613831648722195 15.33268453343823 11.871867075729908
Pt 7.873632289542405 10.38882906137673 12.74162018092479
Pt 11.45562183318255 13.737010499157984 11.050652989010747
Pt 11.365130638616044 16.456988065859782 9.758904693232681
Pt 13.020775424069498 10.59175027756171 10.680354698518215
Pt 13.30347637667731 14.657482359491732 9.417326365559063
Pt 6.946630318964915 12.937312094850014 13.151680348257205
Pt 14.772412908846169 12.452324518858793 9.33514359617321
Pt 9.638423112814763 11.964301297918274 11.690192670552971
Pt 15.381553964551145 9.801157552839435 9.783953059225363
Pt 10.221826618366777 16.115863113615895 12.112201523664053
Pt 13.564640936934158 12.572738559444632 12.211491613150288
Pt 8.992968172501755 14.50359870477667 13.813890356576668
Pt 12.881682548862655 15.766814279907107 11.931845941705332
Pt 15.167185213761291 14.310228195414673 11.260107796886276
Pt 8.810569985515388 11.897918484480849 14.640213556176713
Pt 13.881551361294552 8.11971189249448 11.435209820847135
Pt 9.819159490397842 9.374432794475956 14.47115378961813
Pt 11.279238101990478 12.749540253842936 13.545730218025334
Pt 16.060099813841852 11.722101404305606 11.532851036143743
Pt 11.848025446932326 7.867610212274969 13.264950136471539
Pt 11.580692678161569 15.267467519889772 14.250514127789538
Pt 16.18934750328399 9.080029297337548 12.101526879943137
Pt 14.117030990939899 14.541917187850515 13.93788488413343
Pt 16.395906413812234 13.367679249799245 13.544374565557966
Pt 10.0447027515307 13.819806015970297 16.039936748965115
Pt 10.897062178753137 11.297724250345567 16.015408781743762
Pt 13.22204127072543 11.057391235394617 14.208768247216035
Pt 14.320712344349925 8.650988763481095 13.943867406418475
Pt 12.612947287122463 13.476866898592684 15.88448491766955
Pt 12.281400764459347 9.075624134595007 15.65978146026355
Pt 15.970136312271785 10.785104680614678 14.000650238820066
Pt 15.012141352881716 12.517621097660834 15.680701925842108
Pt 13.19315073603424 11.302623791656425 17.257095879465695
Pt 14.943364212169381 9.734130400171498 16.23972707979491
