50
Energy = -255.4851491 eV
Pt 15.792860719415177 11.95255623214549 13.792059690391419
Pt 14.537309477369703 11.95251486545468 16.112619362659423
Pt 12.845926126902352 11.950114919916818 13.841263177495597
Pt 13.25291993399148 13.756529780671402 12.051741480220102
Pt 14.208862785814691 16.20764236644111 13.007391858136069
Pt 14.417939241560362 14.133502517290339 14.620791831293044
Pt 15.805220893256658 14.248315648001704 12.19905603544993
Pt 14.092087946172674 15.53626659107543 10.387498646806435
Pt 11.085848432378532 13.718512805536252 10.579185331912985
Pt 9.309213396718034 14.258565853305242 8.856769711150323
Pt 11.7158361905051 15.653798621970457 9.084291433209264
Pt 9.537220727607076 16.21103139309347 10.603294972492332
Pt 11.86349436704745 16.29370003789726 11.798965056861995
Pt 12.0934976520534 15.641091063777628 14.486865424455656
Pt 11.000037930971056 13.632885693102725 13.278231173569099
Pt 9.532609828998055 15.723435205683263 13.215558493610121
Pt 8.151014616381435 14.148623881655586 11.392105039497123
Pt 9.966656392673126 14.565501635334334 15.603447732112835
Pt 9.924710221792976 11.95252473745123 15.736006511061545
Pt 12.256246075104754 10.59105490953177 16.083392789557454
Pt 12.255244208233712 13.31532806719887 16.08048296285731
Pt 8.323379198366126 10.60395175563893 13.988739259866504
Pt 8.322329315499953 13.298142641683635 13.986067832526913
Pt 6.887258659647055 11.949531810612873 12.15429413152391
Pt 9.69666491672194 11.958432294243407 11.860157955001734
Pt 13.249244860215875 10.147491920090486 12.04752698599874
Pt 12.143822698530245 11.956389076388582 9.078143068616404
Pt 14.090108742999124 8.369217661594437 10.38529969172757
Pt 11.711048687299575 8.259482768459117 9.085853817397119
Pt 8.157198334190154 9.756691581501272 11.393785106437122
Pt 9.3057626616943 9.64936687573598 8.853364961636027
Pt 15.800175853938736 13.5774194010132 9.530422712282222
Pt 13.550439245206922 9.876716068073105 8.231738513162195
Pt 14.183983837425755 11.95229165946153 10.595413731081843
Pt 9.856941104377125 11.955251964771595 7.809099143824876
Pt 13.55288127170583 14.031722474536096 8.23195915830061
Pt 9.536642984619524 7.695334647808164 10.602497136675783
Pt 9.533921027109093 8.179115376712906 13.217119875550425
Pt 11.861987624922707 7.6149787105544195 11.800276524877608
Pt 8.11092598278768 11.952516385530815 9.766209679332603
Pt 15.801514838376054 9.65928073501138 12.19778671421276
Pt 15.799112864980557 10.328115834749731 9.530076620147161
Pt 15.01186032599276 11.954723540992685 7.531715347255475
Pt 16.77608140121717 11.953402114324492 11.413993363908016
Pt 10.993900991904452 10.274453559541994 13.274394379756481
Pt 9.968865789818095 9.339371564839293 15.605317846735598
Pt 11.079771954953001 10.194813732952717 10.577435086872084
Pt 12.094090219694648 8.268825808768145 14.484507891199677
Pt 14.208805399001724 7.697953020795114 13.005939038442504
Pt 14.417072084816091 9.772068101156787 14.620395667888596
