51
Energy = -260.34127402 eV
Pt 14.272916689101102 7.388271803246846 13.24147907135654
Pt 14.064097036936916 8.12837759748575 10.710111286235268
Pt 13.426569768910394 9.158118799852241 8.397575744890705
Pt 11.551681657358921 7.7043888168281445 9.52544415299884
Pt 12.356475555116655 6.377189129305695 11.6441473793338
Pt 10.78178348224972 9.347975413335194 7.617623764774368
Pt 9.070644378811972 8.50564945435045 9.440649896569154
Pt 9.939903503026091 7.557621236975601 11.717841133436579
Pt 12.72604932554405 10.571601182514982 6.279328251648343
Pt 7.91834543387488 9.33617673869341 12.097111625748775
Pt 15.121209080876437 10.951216725622933 7.5868505114850215
Pt 8.542504523464398 10.810275702049294 8.056113907411248
Pt 13.700588102099777 9.3679915800421 14.825890236528398
Pt 15.359146621247637 9.67729850568792 12.679487603057856
Pt 15.724303092560309 10.055879487517283 10.03934196934787
Pt 13.786759833956554 11.368365998526286 11.096848764231778
Pt 11.760300316463669 7.843865672715448 13.729835568880517
Pt 6.735710963540083 9.534946237753307 9.74735737993624
Pt 11.931021922253855 9.498308095805275 11.516279086751084
Pt 9.652300830330283 10.881644155151452 10.407008088329523
Pt 9.207724340188435 8.295947365212522 14.14790931914108
Pt 10.647163650181568 12.0527816995128 7.14693920473118
Pt 10.09086470628612 10.553816427091576 12.953036772706637
Pt 13.249051068921279 12.752729697103238 7.658150820685629
Pt 12.014004781362328 11.164595874669772 9.325709076182903
Pt 7.29175019706507 11.977815364936628 10.247985088512504
Pt 11.047869121000337 9.66648766353322 15.475839648782623
Pt 12.52581689839517 11.313220919162571 13.434245111339287
Pt 11.364765031809522 14.474232644780875 8.043904040049009
Pt 16.078856926301913 12.116012535180115 11.999370630555806
Pt 10.741964296801786 13.228439856470102 10.21277689224965
Pt 14.90358473237806 11.76137289754847 14.39142164201767
Pt 10.193331023559656 13.097791777117413 12.69390298208348
Pt 7.624942110587028 12.410095991059034 12.823391386552522
Pt 8.431055253450905 10.719559928581893 14.895577400742875
Pt 12.95329718350963 11.371117370138457 16.285644665530103
Pt 8.776295583220904 13.459987683364863 8.5091009998656
Pt 15.182303108707188 12.797059003038882 9.465905166411043
Pt 10.646707857393753 12.29138814593801 15.576562307588368
Pt 12.65448510856666 13.474899645040564 11.935611346589091
Pt 8.149193003768335 14.304407063673436 10.962930849267499
Pt 12.887627925525031 13.644192508862014 14.953886781378689
Pt 9.628365219779937 15.904571325281019 9.52510038102823
Pt 14.563065425510542 14.88544639629304 10.746904157328695
Pt 14.833514635188049 14.13449834720519 13.234602898302185
Pt 8.022736923388626 15.096403202464526 13.437204555561149
Pt 10.21525297257604 15.745269342272387 12.157657550242824
Pt 8.319306414891276 13.283337985759397 15.250946639754801
Pt 10.445801842380714 14.850397630565032 14.662795944923829
Pt 12.121367714650523 15.63703888055071 10.331101984713154
Pt 12.62145317763984 15.694856693399375 13.301416169334832
