55
Energy = -284.56357134 eV
Pt 10.90625754285261 14.958817201443006 15.623754599542119
Pt 13.323697588464475 11.554558726590317 16.36552065664489
Pt 13.031675299861387 14.072749527374782 16.973456035335236
Pt 10.789721578895213 16.22151077211898 11.62992053676738
Pt 10.888489308494135 12.56380002410508 16.721954006827627
Pt 11.475280828496055 16.946384655710887 14.000411945678897
Pt 13.273246912609464 13.222794167892957 13.224213409321484
Pt 13.554292231384036 9.055445689441628 15.722702638547519
Pt 13.052390633017014 8.011881099345809 13.292487999856059
Pt 8.501872142882519 9.696721642392761 11.766067523039178
Pt 14.9711918300693 13.348045562905254 15.374785144848598
Pt 16.28211065008614 10.368316838124931 12.580757449142396
Pt 10.101796367239363 14.96889309033614 9.392260255558025
Pt 11.075968175049232 11.459500787516282 10.144878356772088
Pt 8.326382165289258 13.263942644265493 10.325231119648665
Pt 9.924356798240119 12.19748732673152 12.359955265380744
Pt 7.717821791989219 11.235952588863343 13.805842726184625
Pt 12.59900263141019 15.760622334873542 9.772182858857317
Pt 11.654355659499828 13.79156029751427 11.263430922417767
Pt 11.934074369182392 14.142038854789709 7.72844092920111
Pt 10.550792288139386 8.136833161151564 12.35715039455087
Pt 15.509825195201586 8.33857180302687 14.110878152787029
Pt 13.401962265888782 16.237802946609307 12.255420322099958
Pt 16.005013756763628 12.724187597872278 11.418110366744704
Pt 14.009443027345235 12.895869643679935 6.6376521351351645
Pt 9.360200603242802 10.677178873714098 15.763809126835834
Pt 12.169889243209745 10.19054512714504 12.13049055066718
Pt 9.233428324316005 15.556729500841286 13.707307480152465
Pt 13.547756549310916 11.990716248127345 10.90981576764172
Pt 11.095583268291575 8.82978261642149 14.858705279972103
Pt 8.273676456605678 15.687594300093503 11.235276033850804
Pt 13.364888506355861 15.322121671655541 14.718629634230227
Pt 12.028046435017702 11.52075747200436 7.549283503448029
Pt 15.147710151706823 12.857227662539106 8.977188223499002
Pt 15.52717646325525 10.490545748848112 10.076560235543065
Pt 16.88592363688366 12.582907775370966 13.857772104466438
Pt 15.081714942314102 8.274716723600239 11.57441764675841
Pt 14.404352965993132 10.516067974888358 7.697334190506341
Pt 7.54335618738443 13.699668710963916 12.834306044617417
Pt 12.220783335201165 8.947009260037401 8.156309726444738
Pt 10.16808051831564 8.934071753444163 9.861311252121494
Pt 11.603575980043024 11.569006934582163 14.240311548926526
Pt 15.455726854690537 14.737624482068817 13.065365094484456
Pt 14.3745504688108 15.148523161173852 7.9707773097935615
Pt 8.62341676772551 8.735279797477038 14.135452386080155
Pt 6.680118281182239 11.561328039941268 11.402405834483726
Pt 9.757545934465428 12.69265094721153 8.138911178919393
Pt 8.257978164226532 10.805102019197976 9.426859719627739
Pt 15.035542066310887 15.083158874393657 10.517810746904805
Pt 9.214019714812325 13.163661711654957 14.778580099260328
Pt 14.580867694355193 8.272086736874211 9.043898622360897
Pt 9.907147992728525 10.08359018489376 7.538477762249999
Pt 12.544957282208397 8.042792479603746 10.646130045599799
Pt 11.488790305782622 9.935185815116922 17.186989361224754
Pt 15.417131366902776 10.773035911439067 15.007005238439165
