50
Energy = -251.42673447 eV
Pt 7.9765836548278655 16.322732257126244 11.559553473674026
Pt 7.3491788163202285 13.891244476637244 12.635615965965076
Pt 10.647672034309307 16.77353449369018 11.298479488168963
Pt 8.705374617350943 13.391519144833364 14.86496984586299
Pt 9.763138340209519 15.254940831792824 13.25471163879179
Pt 9.007338801279596 16.200870240727998 9.015238260432092
Pt 7.155182865838783 14.339975588655053 10.026856302624552
Pt 7.583691057869582 11.315058615794412 13.511131077951651
Pt 6.634219156176276 11.95663423016712 10.941315641212004
Pt 9.72211111268449 14.399254981698794 10.631770764753524
Pt 12.320224382369364 15.091203586979637 12.553798558890904
Pt 9.571593925195433 12.44946670833577 12.355413167686839
Pt 9.882345413967334 13.851735572703596 8.087276968391862
Pt 11.337045395631753 13.409893731098402 14.35230050714048
Pt 12.23671485123942 15.112791337916365 9.753258689498406
Pt 9.994315202214684 11.066341196029681 14.871511413377657
Pt 9.00461272771362 11.968674344899659 9.847363923400529
Pt 13.756579918923332 12.995023430638339 9.148827592014726
Pt 9.062698922931034 9.043650322323362 13.419175827830458
Pt 13.786712218940211 13.060747138006876 13.378500763773355
Pt 11.808520928100117 12.878556481524928 11.06032230235289
Pt 14.47254145085776 14.403212625851621 11.178809538754278
Pt 8.959896180055388 11.56278217093146 7.181509216814034
Pt 11.402053057430583 10.665949192593708 12.488899765242424
Pt 7.261279182909108 10.240816375369208 8.996460697944686
Pt 9.61430080889106 9.604672157375969 10.881608452256316
Pt 7.120190244384113 9.472659103970685 11.606790840533304
Pt 12.143549506405186 7.005323418110893 11.585773086724744
Pt 12.668624861652743 11.218244945777958 14.840505651993269
Pt 11.318493238253076 10.449550908662678 6.497628030796317
Pt 11.40074765641831 11.707279966700614 8.763022612626955
Pt 13.741144484329574 11.158261081778386 11.12816028414001
Pt 11.436932503352315 8.813156678468662 14.538920633297806
Pt 15.711384869401067 11.233970682625419 9.406788091698589
Pt 15.964115332070795 12.305770361796185 11.88429997423081
Pt 12.088609459234377 9.430899539537661 10.150538498864057
Pt 13.440426890848428 9.065894973486708 12.630999206865217
Pt 9.732155615324487 9.246014423532648 8.149487903713585
Pt 9.599111123842075 7.085293800856641 11.799338032795932
Pt 8.120076005028194 7.81277568604218 9.661656272584953
Pt 13.733440022692934 10.788547571290293 7.69601178404012
Pt 15.107373512725298 10.756861562477125 13.851742079620333
Pt 13.979252276648387 8.978217579489375 15.478331398912028
Pt 12.409043571024476 8.409543524967967 7.784758738104282
Pt 13.27829991043904 6.858975798126437 13.935578094720356
Pt 10.772100039076165 7.121529065795782 9.386935455850354
Pt 14.521816552725355 8.767222726277417 9.276702357768052
Pt 15.984736594046101 9.564171072473506 11.446595251460122
Pt 14.756722027048868 7.154351508483873 11.313832952687898
Pt 15.741506603133939 8.09572277567197 13.659468059190631
