53
Energy = -271.61568036 eV
Pt 9.048300606036543 14.020999896906815 15.71185796221847
Pt 11.616981544831647 13.981584989141448 15.217612223005288
Pt 9.934346170953365 15.1649314265184 13.590638915035408
Pt 7.032858353093308 9.985435526932928 13.870780820004683
Pt 7.30795303246982 11.492381554500916 11.813953353552987
Pt 10.362692337727161 11.823176952782593 16.350478485351214
Pt 8.789096638859778 12.158115025030952 13.958447668325363
Pt 9.132997058607202 9.702682443837187 15.353234927209938
Pt 12.583147371177985 15.568635615181535 13.113710653673685
Pt 14.127451798567439 13.767229790348896 14.603203378278494
Pt 10.689148266773897 15.804508761873764 11.182996328485356
Pt 13.024339062002522 11.813358396665286 16.025171267350313
Pt 8.675345422680577 13.848543786806982 11.796747061965014
Pt 11.504906272617344 11.029704519297258 14.06399522022016
Pt 7.547010275197387 8.676862976978557 11.585160543671739
Pt 9.309627474502905 14.449759736178763 9.052236396018278
Pt 7.328168484423143 12.894741977177803 9.693255906173027
Pt 11.640564541408224 9.478554520348164 16.202084120651964
Pt 9.535945909274428 11.19098182588238 10.295874066289736
Pt 9.657619505898424 9.95400434971218 12.631104006476791
Pt 12.385740024231067 13.052015113253047 12.821455376792391
Pt 10.978422076437745 13.286366287890996 10.710396638790073
Pt 7.335432968691985 10.159785129572116 9.380456722428708
Pt 8.182866450002477 7.61086944048426 13.913534121165045
Pt 11.438348195612736 15.873294361253443 8.62553894876657
Pt 13.269065303306443 15.643957443348155 10.507101600692604
Pt 13.399483725139481 10.722299845136279 12.240713148784367
Pt 14.93073303199268 14.44531697081249 12.204945821902937
Pt 11.18195532609213 13.478993251727443 7.442178811429411
Pt 13.517014476235937 14.329004791536567 8.231188400483095
Pt 10.808798685492036 7.972210308215652 14.171105909125945
Pt 14.974554978544434 10.419182877391274 15.20056137845954
Pt 15.671186859681868 14.758402693504067 9.674440593096474
Pt 8.941784650480617 12.05845396539068 7.853414551980185
Pt 13.567082763757071 12.76169899151732 10.548776958130915
Pt 9.74543966908201 7.082954754637575 11.885682618452016
Pt 15.49147521026366 11.940989177311828 13.267070569336342
Pt 9.249772650491227 8.328473294409317 9.597753833701287
Pt 13.297226548174365 8.801038509874092 14.168429624810683
Pt 8.99654261968222 9.505642374128591 7.308388562870907
Pt 11.54071622035286 9.497026135823278 10.88898264924897
Pt 11.907328951654518 11.412021817335994 9.12416223116793
Pt 15.188751611705776 12.32581560598477 8.434398259533705
Pt 16.289502412955734 12.451279780279704 10.876511788803889
Pt 12.377453607582988 7.366400265631397 12.129044679754005
Pt 13.313248984025606 12.33894928844414 6.471669296078224
Pt 15.091964926242468 10.241968562377055 10.120518544948062
Pt 11.28165454261487 6.662482185095729 9.79397698408624
Pt 11.073128610766993 10.914633689259794 6.640705355835469
Pt 14.781509594155784 8.515534850366695 12.026424440140467
Pt 11.417208532995252 8.669179794118223 8.048007747807908
Pt 13.455973504048359 8.232721720810448 9.668299593022837
Pt 13.709198328614656 10.144932446020288 7.8344030548932455
