54
Energy = -276.03612746 eV
Pt 8.301578405103227 14.662923906724762 13.226462753044814
Pt 8.48161999618573 12.102756298632212 14.79962000820443
Pt 6.699404597960693 14.117080435967837 11.240281963367691
Pt 10.773551954899299 15.753584665663483 12.384235708372817
Pt 10.434528831513154 10.831927694418322 10.077624565992565
Pt 8.319562327978502 14.446875944871179 15.928083987835686
Pt 7.3865760293926686 11.92711955013662 12.457077880912998
Pt 10.27196110436594 13.396121623882115 8.601516372191918
Pt 11.28674240767772 6.757528636176932 9.757202684531666
Pt 10.114551128070929 8.31417643128026 11.578076653914025
Pt 12.224232498285971 6.87934372340137 12.16485012933053
Pt 12.289254870303921 15.622211225589352 14.523415267590801
Pt 13.378546670198789 15.144186004874355 12.101851865381683
Pt 10.965929880394494 9.393661882819064 6.715868819683911
Pt 10.375747810956522 10.403631859936363 15.6288367879068
Pt 11.238197377631836 8.567001399315396 14.016135765561822
Pt 9.51627340178035 12.390738799546991 17.161609064381963
Pt 11.43750977966173 11.930855546322748 6.765859010892308
Pt 12.15696631574699 12.923947116384666 11.034494933202518
Pt 12.691481197841215 8.996322025339598 10.464396502722368
Pt 10.82618313476262 14.74185312391156 16.68967466414617
Pt 13.830841245597991 8.765924749606956 12.927993871095884
Pt 9.034994367640444 10.025181672236641 13.298531761608672
Pt 15.945515734980539 9.41377053111082 11.352190475173416
Pt 13.409147103497697 14.517387007342466 16.72665998416513
Pt 12.026553608038048 12.29752406760834 16.426793247291922
Pt 12.991526550389343 10.300444682920988 14.95659614173238
Pt 10.615783811977463 13.559588351638117 14.337161608850932
Pt 11.61724536122208 10.713115356370889 12.47889646206827
Pt 17.34297602870841 11.496611707077793 12.282745952441894
Pt 12.704549654147968 11.3769122312868 8.994428406297487
Pt 16.737318118044367 12.894622356988021 14.408234051409199
Pt 12.86542001352697 8.048477330023243 8.04526685738912
Pt 15.322625982959623 10.720138634453448 13.779046560041698
Pt 14.551807444240367 12.291039405027606 15.78256848992552
Pt 9.820312776957511 12.667486577957474 11.986299422969099
Pt 14.857612987452578 9.513617411505688 9.002063902901758
Pt 9.528067088748267 8.660802006691984 8.935264064187606
Pt 8.13244973556221 9.932828333703895 10.828302014751223
Pt 14.021479799340723 11.170585166789818 11.360980875685383
Pt 14.669505534263184 14.59945671809532 14.393968519650413
Pt 10.614277282719732 6.891063029076811 7.291974825783878
Pt 13.013261189807762 12.701775518283743 13.556448392445354
Pt 16.137107224024945 11.918684476072846 10.022663715341865
Pt 9.725808865932613 16.310531165982017 14.734835625523878
Pt 15.547085787904972 13.557859134363213 12.140155990411303
Pt 7.967730076499946 12.428132114359865 9.680393046011693
Pt 9.17665779279961 11.0542092030872 7.816172897881523
Pt 13.527480695574178 10.237382885275416 6.758100102748529
Pt 14.3146481833357 13.933190661409515 9.876366141367615
Pt 14.848341069910433 12.265191990854566 7.8041223091367
Pt 9.125311480479075 14.787182583834104 10.54650981358544
Pt 12.73854668305367 13.986137786257732 7.7718650109464065
Pt 11.666797470271717 15.213278772483333 9.981244095076722
