51
Energy = -261.41305175 eV
Pt 15.696799445284555 10.707029181273686 10.508065565122797
Pt 16.70073990590341 13.173761243335454 10.367383125887503
Pt 15.895588699822564 12.26464236129317 12.779044306159141
Pt 14.840749026394034 14.253296846896697 14.29666483669081
Pt 14.656685399610518 14.290854201282203 9.174276067668906
Pt 14.3436175860095 11.799517449362959 14.951813105543444
Pt 15.682475874910942 12.020093122464745 8.190361359596857
Pt 15.083364775199996 14.863627194949068 11.798519129799008
Pt 13.729869343967636 9.258299627919872 15.204242951000076
Pt 15.129475801295277 9.660500530969317 12.890958375427756
Pt 13.926383517159032 12.65215887922916 11.092618482503958
Pt 13.991089523894141 9.980378272953661 8.198530740732068
Pt 11.461355645669315 13.018050749697688 10.108393105575855
Pt 12.430882107724601 14.989532240369089 7.964143903374263
Pt 12.924599556682436 15.78881073079336 13.148054883612518
Pt 12.427030420227172 13.655315130993285 15.1785084360544
Pt 12.060063730464096 13.428370600573764 12.647093301877137
Pt 12.792725510547198 15.633516645187647 10.49744915515549
Pt 11.89809648035806 11.063585070475979 15.784462041635678
Pt 13.108721672795415 7.860726210771718 13.132212037673286
Pt 13.132846940460569 12.460652098298814 7.803872662202856
Pt 12.972279187917007 11.015616624764876 12.883375658843345
Pt 14.198335416587522 8.550978982282093 10.621573465032016
Pt 12.465873011683994 6.545828960750165 11.006262388330558
Pt 12.045858798857784 8.25349708752001 8.9904852378586
Pt 11.359271086094433 10.493752072323343 7.6795300337470085
Pt 12.5893421796764 10.641087458084892 10.27540028467866
Pt 10.473205214379163 10.75224373215521 13.407979585830741
Pt 10.420222662165616 14.957244755176694 13.9905771211056
Pt 10.559520482539922 13.162506480679607 7.639500846663299
Pt 11.253998409222344 8.99973921964773 11.700643679622406
Pt 10.270163214756893 15.222530265873205 9.500373489136866
Pt 10.289269057021832 6.968723938969049 12.809072551753344
Pt 9.919573126705432 10.79683391376725 10.382940265857195
Pt 10.640120729420547 16.408535685554998 11.841361423471483
Pt 8.454152305245136 14.92443103708283 11.36937684965694
Pt 11.145572199491768 8.606292525795775 14.85809497499992
Pt 10.052185795527153 6.819457694720995 10.057057215979874
Pt 9.89256925793623 12.713249873963054 15.290807955515227
Pt 8.800983351505929 11.223285006822241 7.6606011427965335
Pt 9.323727549080944 10.22852061800486 16.032588236334863
Pt 9.402343730527695 8.917034156572623 8.660226576739209
Pt 9.632119048709129 12.76547181152877 12.10232884973563
Pt 8.663643374373164 8.855478876498474 13.842211485965393
Pt 8.490341169344948 13.117807461225073 9.413109206691344
Pt 8.450718152548347 8.415638092229154 11.265292940579851
Pt 7.960286949201297 14.035180011335603 13.860459430456233
Pt 7.434352583871472 10.566847787014897 9.87086744219042
Pt 7.8603285106405005 11.405133078960711 14.124472001470693
Pt 6.69192244282471 9.940218727231644 12.324439517942938
Pt 7.11600187428432 12.521874066485529 11.752308202362725
