50
Energy = -254.61428252 eV
Pt 11.054179421723132 7.878483628463927 8.748662186896095
Pt 9.468419628097934 9.562716434303937 7.257612720573958
Pt 12.106238745619473 9.996319828213657 7.561632947211646
Pt 9.664823170384954 6.54976647439815 10.666754510198146
Pt 6.814573892045933 10.033501478989141 8.171293749000757
Pt 12.315320515558774 6.927450077184779 11.037689433885653
Pt 8.30019395762227 8.348492517804711 9.39061009564049
Pt 7.987052397404275 11.856094746151005 6.673033106872365
Pt 13.501701982914282 8.687986323316569 9.444751056618877
Pt 14.78113182329363 7.8648153478219 11.837804512359071
Pt 10.461037473976926 12.103060329400135 7.138824655243494
Pt 11.892903381153081 11.343136018959692 9.855011423008776
Pt 10.574361744997384 9.314310005044252 10.828013263773048
Pt 14.391596886968868 11.064150433556994 8.656000149106971
Pt 9.22383892729555 10.964897361531044 9.472037613918246
Pt 10.496420622664022 7.4273415547645625 13.0039657863893
Pt 7.031811226456842 12.53379340237237 9.028682416647776
Pt 12.96734252020557 12.529515101491375 7.093130603977969
Pt 13.003869754239975 6.916855099038858 13.648380032553865
Pt 8.269857501938624 8.502298461241631 12.04950389762409
Pt 15.828515186882955 9.674374052325296 10.276974938663928
Pt 7.086192573056642 10.551166209425432 10.846233080782586
Pt 12.811843680522543 9.399426419882168 12.112467244223176
Pt 8.693615634396483 14.22530779523248 7.628573004955882
Pt 15.849924641926895 10.287466915709707 12.832437916201288
Pt 15.00351846111089 12.059106692331747 11.010589446327979
Pt 13.49230831001682 13.525476651825471 9.460804190195864
Pt 9.754943927280493 13.390916643957302 9.879668247322003
Pt 14.049455782701374 9.14565910038711 14.446920429118542
Pt 11.41420709089125 14.430539458294433 8.095419998634295
Pt 7.771371176551214 12.992538824957041 11.669064250588942
Pt 10.71233274799312 10.592393330894836 13.024742820022883
Pt 7.406256520017708 14.990282067083069 9.945707223199769
Pt 8.897374591980515 8.845766359108106 14.61289314722145
Pt 8.122092754369273 10.943943643962394 13.231073650268105
Pt 11.273951571563103 12.80406918246627 11.869254583228466
Pt 15.195075021429687 11.3648734360426 15.183664143164448
Pt 9.74818806416248 16.068077743176595 9.313556262225312
Pt 11.497951971821188 8.800616847304507 14.999067312363277
Pt 15.852876050539548 13.036348028998045 13.2885755963465
Pt 13.298385601715282 11.695420786192445 13.077167564012383
Pt 11.835790023858756 15.220099071304393 10.735578740549546
Pt 13.864488708836427 14.239934500391632 11.98956769835163
Pt 9.341562175142585 15.163238160628072 11.896305883708857
Pt 9.362029463703092 13.270321923071142 13.778360606886421
Pt 12.58533381941536 11.18151593278321 15.553071925968549
Pt 9.933005080003076 11.16237413730438 15.431753328131046
Pt 11.568733161764326 14.911722653618112 13.419611524946536
Pt 13.666959839633465 13.684831038137586 14.675130472813636
Pt 11.236245089131122 13.430524133272712 15.615340158004567
