5
Energy = -17.65761071 eV
Pt 8.08334199842044 8.399703855694309 10.128404027562596
Pt 8.24490971246101 7.44015525261226 7.599523072867818
Pt 6.420522187505342 6.866702258514174 9.156182044774326
Pt 8.75921675772488 9.862661957146695 8.213828735509587
Pt 9.814935555092601 8.763166067880901 6.232675089030542
