50
Energy = -253.79246331 eV
Pt 11.718983858273884 8.608623226432655 4.504064932751595
Pt 6.731264736684007 9.018609850801491 5.99866855581072
Pt 9.253413034332203 8.839411824185273 5.333047412949017
Pt 10.880953925403027 6.890746509809066 6.244136340612261
Pt 14.484391131666904 7.958965633882666 8.698563247447813
Pt 10.74762379582764 10.978669629307328 4.942774539300705
Pt 14.674993186307809 10.313529971660902 7.568482142452789
Pt 8.235896582581313 6.685883933820038 6.644103453709137
Pt 8.171947333240961 11.348744915839765 5.8033745249967215
Pt 10.196081133512912 12.895387268278146 6.6877272539207215
Pt 12.86782559002065 8.610260215803256 6.771981863524979
Pt 8.05464513372236 8.670569276920398 8.18655777868681
Pt 12.390912008311295 11.43834215090797 6.908043795611953
Pt 12.254419493224068 6.650458322988197 8.51348545476692
Pt 5.856009389768127 7.387979606472893 8.044473654296164
Pt 9.866358210341685 10.319274954388153 7.5335172059133395
Pt 6.0795211900217225 11.070789113526965 7.451997800186107
Pt 7.747476398017777 13.161309228075016 7.856980945283056
Pt 10.057149302692423 5.368597557848962 8.167830798383804
Pt 13.946606649367347 10.022563365904695 10.190908035563137
Pt 11.087759767868917 11.82444438362771 9.28547764562067
Pt 13.808664783467739 12.38226186518354 8.880768228455642
Pt 7.719715146462607 5.778758761553282 9.213561333380405
Pt 9.955129546662967 14.229317383622961 8.906206480502284
Pt 8.011373687365682 11.038093528409805 9.2301451910964
Pt 5.8192923988877086 12.321186834505928 9.756198902699072
Pt 7.994535863534318 9.224031304141754 11.126186369341534
Pt 11.594784743617804 9.223392169938464 9.124745286656319
Pt 10.636882965431003 13.731122728420535 11.442207705061644
Pt 6.208059435737447 7.2384949095780735 10.621241950189493
Pt 9.646890400836199 7.5410113853348735 9.796501875079064
Pt 12.815447054587974 12.1306853942535 11.241788291979628
Pt 8.077573274981381 13.575130596350437 10.619388601919518
Pt 5.414488762423738 9.628180598564033 9.594242964451578
Pt 11.203363978303459 5.589158045475069 10.677206951567666
Pt 9.487779819768454 11.421829235089634 11.290345484359264
Pt 8.822124153141159 6.004517511809524 11.760895218457577
Pt 4.744746563999284 8.66604489885114 12.156414084894076
Pt 12.883922513412728 9.803399525684 12.566212908726966
Pt 6.643926463258831 6.822657687880668 13.084230142751842
Pt 10.637478183841404 9.177867080936391 11.587276885917786
Pt 7.2713067475790405 12.79848867255064 12.916248292519825
Pt 13.04805624651811 7.6024680062782135 10.923064691167513
Pt 11.232810044559463 11.833154892961733 13.304736099103277
Pt 5.995407392289501 10.887906192986177 11.925762097710942
Pt 11.23719962355715 7.0124322120389 12.863963728068983
Pt 6.6515405308428015 9.372462045632659 13.881898063626283
Pt 8.849416772022115 8.051569851817888 13.502611061246155
Pt 10.928245732669298 9.369209087878556 14.315289144817253
Pt 8.792746432850839 10.919147765588404 13.791605696261044
