53
Energy = -270.8834486 eV
Pt 9.388846502888205 7.5900654255465545 8.372837584663872
Pt 8.569303678791352 9.532603912276263 6.462301812837081
Pt 6.965868033589023 9.285990499253362 8.629357665973053
Pt 11.144210566368384 9.253268852232555 7.125728830549587
Pt 12.321991413583799 7.293671112320667 11.904553336076498
Pt 11.897016168482754 7.706507826596223 9.26051700123859
Pt 9.601554931555537 7.554438119986047 11.011032446557175
Pt 13.503142868543566 9.595325850122054 8.192300209804584
Pt 14.228622446026856 8.39096910104787 10.405989301213456
Pt 12.55933306621186 7.496070425172485 14.539976335722386
Pt 9.33231493103284 10.045188128141314 8.982832112791725
Pt 9.97168126511689 11.872934280466882 6.801814507540991
Pt 7.354376286129049 11.66884228810685 7.437397743100292
Pt 10.25212384099007 6.876318538873594 13.471680194909029
Pt 6.33677105362659 11.190055286707949 10.485198339060085
Pt 12.544659375976872 11.379322976543131 6.468982417855357
Pt 7.03079048832337 8.747302027788423 11.171959334431758
Pt 13.49642610274797 11.053504403086261 10.738535883666454
Pt 14.254610109454468 12.208026158800928 8.325728335921479
Pt 11.47716049989977 11.494818931645922 9.173893567959578
Pt 13.055995163553423 10.181982570501049 13.173310019883397
Pt 11.35421070252272 9.539058595746772 10.986566981552397
Pt 14.63840199183393 8.126088224940439 13.01799741188168
Pt 8.782177828899345 10.728570671993191 11.348659566721338
Pt 15.85252638306157 10.255102928315177 9.298305689507124
Pt 8.534853160961628 8.812537064257468 13.294598952401701
Pt 15.751337363471059 10.302371904922362 11.953097235659024
Pt 12.083631563334126 13.63704166620882 7.842907984788587
Pt 6.545994196633133 13.470791675613912 9.202584540899426
Pt 6.994536519646351 11.116439809296775 13.13713281499996
Pt 10.494491105265928 9.006647760886473 15.090684233116646
Pt 15.677505115428612 12.622397695161611 10.537838665075354
Pt 8.962036429891008 12.571579430281757 9.387213295052137
Pt 13.533209873681411 14.185611084903151 9.955512288199902
Pt 10.634443258442165 12.769471228504779 11.304459371791472
Pt 9.58129123240486 14.420080479194832 7.742433165939309
Pt 12.93039646011427 9.838746632671162 15.731826257349583
Pt 15.280800139982606 10.367653534166974 14.563343967193404
Pt 8.419599495985478 10.596322300609316 15.283915976597422
Pt 10.611987405038255 10.892134605592982 13.154446641240638
Pt 12.812936608340708 12.705788808903625 12.612789644039347
Pt 7.577070740948635 13.368701151837934 11.781333476898963
Pt 15.382260332420493 12.646560814234045 13.319077892932723
Pt 8.439959278164903 15.168065380600071 10.119329675160708
Pt 11.04879006773315 15.005197277627497 9.91986654674249
Pt 15.057416505697843 14.784844037333603 11.9359105629925
Pt 12.4120913448794 15.263402327808016 12.183042134528055
Pt 8.947806412290927 12.846927472733421 14.046594880994943
Pt 10.871312326392502 11.632010086233176 15.643491394620648
Pt 13.42100171756784 12.364613204768027 15.303652550256796
Pt 9.751194849836732 14.858349538329783 12.506862814140566
Pt 11.376819478336072 13.987642419450594 14.431278305741484
Pt 13.968521623791624 14.761239554249846 14.349953914212255
