54
Energy = -276.04977088 eV
Pt 12.1191001370687 9.808684902766567 16.060372468511805
Pt 9.623396022946416 10.451628201836764 16.136766777733147
Pt 15.156975386300637 6.854491431125047 14.265344573921533
Pt 12.728499079314147 7.668247912720483 14.502306245758705
Pt 14.626005011731182 9.053691542501811 15.694781692366696
Pt 10.23111722962982 8.23929244503528 14.702920439793079
Pt 13.89047379780371 11.554624504806121 15.19832031775239
Pt 11.261354633984261 12.16423543868964 15.082764498007805
Pt 15.506518990770699 13.35916663218561 14.224364235574324
Pt 13.76563341788057 7.4010572895600815 11.932853317545673
Pt 7.83483482935751 9.510555361974808 14.5681421799002
Pt 12.965840698778015 10.065350600156895 13.217835862170842
Pt 15.44112053754323 9.16309594299893 13.188102407569769
Pt 11.162941203936448 7.09510466814372 12.473981432901263
Pt 15.255555736081245 11.556464399509471 12.401943584168052
Pt 8.70524248356476 8.052358149049384 12.579202786204018
Pt 12.96906846582532 13.879732837470096 14.063451165119867
Pt 10.387579211743965 10.336015474539888 13.19530894494734
Pt 10.430828094317615 14.29259651404282 13.742624017250947
Pt 12.115218717415136 6.540859469553677 10.051768629966958
Pt 11.81231893599685 9.248982571772776 11.068941427167916
Pt 9.712207962639328 7.589057143443122 10.129990413774486
Pt 12.557293105103367 12.316648798569787 12.013159322027294
Pt 14.793552661378639 9.547355154204643 10.705515070009948
Pt 14.713086199803609 14.089414199163054 11.779698847736716
Pt 7.394508286936962 10.435797179203954 12.241080816292504
Pt 8.582603593257264 12.167122620129016 14.267291767341913
Pt 7.219284715145114 8.38846420899447 10.512649994339817
Pt 7.8306724374837104 14.542387434299984 13.29254734374171
Pt 13.208134822952285 8.43866630330519 8.785001825012461
Pt 15.201424704976253 12.243977918620802 9.891629304803379
Pt 9.912560308691408 12.524685845798187 11.898218523664836
Pt 9.490437212070601 10.387303633845066 10.458949986365932
Pt 15.103986439336207 10.204856214972915 8.203646988021735
Pt 12.739108035914082 11.262593654727645 9.640721334701695
Pt 7.192292373682431 12.83295026149435 11.485387517765092
Pt 12.146464999454034 14.879967420651214 11.674654488466121
Pt 10.895777069518136 9.7286103862767 8.28382466506505
Pt 13.524845031738646 14.291432047337807 9.452313673820793
Pt 7.0970585766380765 10.954087239853243 9.638405129391627
Pt 9.566486256768222 15.2387879406931 11.398528068960648
Pt 10.53475836758828 12.670034201876 9.436503359898062
Pt 8.35414877656346 8.902262137076779 8.21989343713002
Pt 12.991428854622862 10.030278586421971 6.678483011777577
Pt 7.058604670510336 15.302921666248551 10.716655169304115
Pt 13.907687904308245 12.450049205911666 7.5316692699638
Pt 7.843820603033028 13.362642484082631 8.979738242588692
Pt 8.842261209195586 11.375375068032083 7.57496264089494
Pt 11.328949632529863 12.005121989345232 6.884605542151146
Pt 11.147114192360574 15.293998456252302 9.328841828066631
Pt 8.668469585233492 15.840997858407357 8.776684452926261
Pt 9.534097222442426 13.85531623066301 7.006893785262791
Pt 12.292757206938923 14.427360350850579 7.093749738360501
Pt 10.442234651524261 16.318310103688233 6.97296700100336
