55
Energy = -270.45865094 eV
Pt 10.579982349834665 9.333152261117885 13.746952180728037
Pt 14.309896300715536 6.169447146212428 14.918085944858214
Pt 15.817692915797853 10.383755630302389 10.882081521643997
Pt 15.798432721384248 20.399791327500196 17.051887717408118
Pt 13.104257049226769 13.989483824464592 14.58125653312934
Pt 11.891318436147328 15.413793173583135 16.537441033568957
Pt 15.811413212084672 15.523502479744476 16.159792719375744
Pt 13.989793548517552 15.971546651177029 17.982578101146174
Pt 16.463051357383403 8.492847190221053 12.514949163326616
Pt 11.155122693551165 16.920270204292866 14.534778203284645
Pt 17.845534429180645 12.520618618617242 13.413731286798823
Pt 11.830984315590156 15.624617017885535 10.277630574091972
Pt 13.164104247198162 11.348878584667604 18.080664554961615
Pt 19.650651684878245 16.42699182977561 14.322546951288391
Pt 9.16080195906326 13.086388077051732 12.729051237251465
Pt 14.560673898669696 17.10322070182825 14.509742033223276
Pt 14.022074013630947 14.535507656415177 10.947399229467518
Pt 11.112619474210776 11.467102969414588 12.234701841483197
Pt 17.601957846400143 15.012264008067756 14.407888655253206
Pt 15.624041206748297 10.894658973296918 13.491212686673267
Pt 14.988198950851332 8.62343867830359 14.691075308778615
Pt 10.894797722459186 17.872260821504312 12.017599262819711
Pt 19.99796634249401 12.03150314474258 12.097560746899664
Pt 14.468214002210619 11.058916668828473 15.841588428590004
Pt 7.934815568691515 14.824532083025623 11.348685918725195
Pt 12.826967853323282 17.830263745966185 16.368320990010098
Pt 11.963959589805421 10.093048476309262 16.119565857306164
Pt 13.110682304692157 10.05561431347558 13.4895905606843
Pt 14.467711301488043 13.431295912586082 17.076478603131722
Pt 12.446288957845523 7.78384635104384 14.907441347619987
Pt 12.547523382055203 13.903027588641221 18.721159584879928
Pt 15.414641908112635 17.93566474314673 17.04942332474696
Pt 14.441799932123887 12.259325609007645 9.665258772468729
Pt 19.840686739329257 14.239115000266905 13.263637505838261
Pt 16.670044349566947 6.642627681061207 14.208262329698181
Pt 18.11898501345444 10.358883371449698 12.07888728589669
Pt 10.162187957702805 15.463627795513823 12.510680231516877
Pt 13.534487897937774 12.457008690421993 12.5216456164592
Pt 11.346339840662933 17.95577980959407 9.325113646240974
Pt 9.380905870101742 16.615619666030348 10.226702615887115
Pt 11.547430720579444 12.723414217098853 16.58719340664705
Pt 13.137375414167352 10.29888539291282 10.892608808780002
Pt 12.337691155312742 11.22313385244088 8.628522144750812
Pt 12.870068991602002 15.965534666017376 12.806222727010788
Pt 14.174337992843228 19.72280224609708 15.299430936027411
Pt 15.696291661796776 13.203954715968223 14.807011146343722
Pt 15.441328710651089 15.21341552860573 12.992278364306737
Pt 12.936208960200668 18.781786366125427 13.33686074382929
Pt 11.716806284163392 13.05783517632867 10.286107550704774
Pt 11.946622172786233 20.276083867031378 8.72274487543229
Pt 12.537004674125006 19.62562012316167 11.035975855460427
Pt 16.05845113839154 13.020720841650112 11.610541978162097
Pt 10.201301030232486 11.679766710955363 14.666789438564356
Pt 10.443999890351991 14.245711888669172 14.768382808968644
Pt 10.18631329477572 8.190937167483142 15.989120344952727
