50
Energy = -254.69727984 eV
Pt 13.314064296744027 12.736417677994805 15.026386007422316
Pt 10.98873038348477 11.473760521599221 15.528493591308925
Pt 8.796007026640613 9.923685161791417 15.67245142709187
Pt 12.900104664886452 15.198886692844694 14.105974266402464
Pt 13.079510263983105 10.09174441184171 14.811359188393743
Pt 6.680884461851611 10.42940084130315 14.049666635929732
Pt 10.740781457616682 13.760828839409717 14.225111460941818
Pt 15.246278345293817 11.259265437296685 13.847346557451015
Pt 14.44633860728549 13.57966503631189 12.722050718244246
Pt 8.671654810431706 12.191629598995842 14.352061099511484
Pt 13.04509100252767 15.358191162018292 11.46655227196594
Pt 10.97000385463711 8.586687256985611 14.833555612875335
Pt 10.740380006185482 15.913614313390232 12.638987215265574
Pt 14.972101213676963 8.483134316266787 14.06842872009845
Pt 8.348286116170858 8.496973008887526 13.546020206918797
Pt 12.20004722615118 11.823997501805486 12.81808909945136
Pt 10.245117268516205 6.884935014693124 12.901604953052013
Pt 12.662511033903021 7.743649131503185 12.948920394018996
Pt 10.141824499024752 10.298321001713216 13.076678651113115
Pt 15.691428356292189 11.822138199436315 11.269563921355513
Pt 11.015940916527258 13.561816028220326 11.282903161544917
Pt 16.60098686061048 9.560260132358609 12.280392292298908
Pt 6.884100965015719 12.27744599878266 12.25675665110217
Pt 13.787948807710608 9.918106233810233 11.945947091745698
Pt 8.669820929713433 14.178450655933034 12.600655835218605
Pt 11.339707219276713 10.089934761698888 10.76927789693531
Pt 15.003960146982607 7.533728685035917 11.563758638238438
Pt 8.20819680135292 7.37086937837725 11.205998151836733
Pt 7.150264667912211 9.788587478722045 11.478678556741384
Pt 9.18263967709452 11.614806490729737 11.126321872548466
Pt 11.295267506613085 16.89661871891963 10.195608932339534
Pt 13.050628768098552 11.970784581485946 10.251754285709302
Pt 7.162834708917022 13.946797094724344 10.324882635219534
Pt 14.709182110121864 13.92951513030368 10.002230490522315
Pt 10.73159912488587 7.585471890093277 10.461204577786312
Pt 9.351698630436637 15.282884472635585 10.18125058081151
Pt 8.7650756677448 9.191467534921768 9.46309727899914
Pt 13.166901197655882 8.241909859611551 9.826406051423868
Pt 10.765280431337656 12.260949936182305 9.094256385883869
Pt 15.71510286742256 11.848091999830611 8.63518211201356
Pt 15.55626589980792 9.490977796617251 9.800839150297124
Pt 7.288275467122779 11.445228664928308 9.331805983687756
Pt 8.68723916903606 13.505685808324326 8.227769738743564
Pt 12.387987548772479 14.881892425328093 8.992166220141776
Pt 11.214796219669378 9.15909837641315 8.274340286758546
Pt 13.631690056216579 10.315171541902716 8.182281256149675
Pt 9.187638268194616 10.853002997959189 7.563633905909467
Pt 13.539062522174177 12.977608928131916 7.629648855840989
Pt 11.029340351906544 13.866179885244318 7.001767601930575
Pt 11.648472553134688 11.293662737236126 6.734709313759634
