52
Energy = -263.38395785 eV
Pt 13.490073508501817 15.474729026697728 14.561832028442678
Pt 11.29841356626491 14.374643003276397 15.690414385739974
Pt 11.109942367833977 15.884304785698166 13.441270407702126
Pt 13.252872822957409 16.412105084887674 11.99826566090877
Pt 8.91607521753446 14.893055607991728 14.59913962526126
Pt 14.450452000788559 14.116709745302078 12.534660195442513
Pt 13.37250724348702 12.843475415711755 14.533283979086727
Pt 9.347653800025292 12.333660249940802 15.489128985606722
Pt 11.925590613683383 11.843100206933181 16.390137435485013
Pt 10.825296976595471 16.822978890130397 10.901613946974779
Pt 12.024227387465467 14.130246490351317 11.495740351886804
Pt 10.897474481728198 12.980653122454795 13.567479933602757
Pt 9.08264373229725 15.069301731058607 11.96038105000075
Pt 12.693245970381861 15.606029654326159 9.419136186198356
Pt 15.322217167729223 9.093672483972869 13.299389737322159
Pt 16.25757299216039 10.32543514130452 10.99406778355126
Pt 14.78574648328401 11.556335823131048 12.77341744483582
Pt 8.202596393450396 12.84920095174157 13.054996521687483
Pt 10.559100212138208 10.020459233059057 15.204510859745037
Pt 11.924027490068438 7.781616914492768 15.029505979674719
Pt 13.248817833587939 10.18860852652413 14.676789565277113
Pt 15.201987338684077 12.79903369539828 10.411485611545574
Pt 10.157202793435543 14.609600899113836 9.629489733304855
Pt 11.26541052056484 11.648953497656532 11.51426794113497
Pt 13.482831749693508 7.3434289735288445 13.019542878117678
Pt 14.79608906516933 8.044527580798936 10.851710884202287
Pt 9.61919103281171 8.004978919321582 13.807626968863483
Pt 13.527948463213338 10.269388385782408 10.782892535068704
Pt 8.083071423855879 10.356338351999298 14.158619942260687
Pt 12.705782556555127 12.512968918552167 9.566411844179845
Pt 14.959615241503856 10.640109106394 8.651235148481417
Pt 14.312469498634778 13.90050542975702 8.17804929186808
Pt 8.103624598479225 13.177681871373043 10.460681326421023
Pt 11.898924177377392 9.364913798608159 12.59215000835127
Pt 10.191580160637066 11.874286630152081 9.162333439625751
Pt 11.616608745871238 13.97420891447429 7.500190855487625
Pt 9.404477786438399 10.040145265417944 12.02737510438784
Pt 8.771879907451549 13.458650945311357 7.639808501359483
Pt 11.15008583922776 6.168613477312961 12.836892849450152
Pt 12.302038311317743 7.0279431489137085 10.662241122106547
Pt 7.432514407978138 8.318478029788826 12.3728002190077
Pt 13.098880701325982 11.651164881304705 7.138553664478887
Pt 7.137742541802906 10.936518465657985 11.44133078654652
Pt 13.26117144432631 8.568620510644802 8.685697923068055
Pt 11.008004362842609 9.471234049662737 10.046955581245111
Pt 7.651150374115365 11.232095163221201 8.780935693957096
Pt 9.583553578601636 7.268496555492172 10.984479775679505
Pt 10.472763207604801 11.659305705879442 6.627851443815217
Pt 7.814094502845627 8.826703752849783 9.8216102935202
Pt 11.781177278425409 9.400819504836967 6.788479287839263
Pt 10.880937912284454 7.369336907652841 8.470485930317063
Pt 9.393744726849496 9.490300709847054 7.8486485291569
