53
Energy = -271.02225701 eV
Pt 7.216227367569595 10.974754485329509 15.791159511111813
Pt 8.283658423236737 9.306244041828094 14.042522333433194
Pt 6.218581961612934 10.644862072561986 13.321741544765363
Pt 10.35069288761891 8.082772897263355 14.87908170862999
Pt 7.03799571000524 13.077512458222673 14.19613792170225
Pt 11.991814588114927 11.58647260061905 17.016414723653117
Pt 7.817359608176518 9.78001920753576 11.450720660882238
Pt 11.53558237653303 7.360791559609551 10.547267681793352
Pt 9.874514105841836 10.57907083535387 15.731704042971618
Pt 9.594877531347514 7.784291041594185 12.273748505628763
Pt 7.326450535710202 12.329519456163137 11.583648453822576
Pt 8.855040828408441 12.902508618991812 16.21677012273854
Pt 12.204805846244263 8.090749524752276 13.045014320625446
Pt 7.62137525508146 14.851744740633084 12.23313257350187
Pt 12.316895577948932 9.737804193851108 15.102337151697158
Pt 14.136235496632514 8.072467844159998 11.253744264884414
Pt 9.373459545559612 12.425540112010735 13.25949710313106
Pt 13.422722783338774 7.115892788077778 8.826950375199495
Pt 9.611000312715143 8.933083589660423 9.78921752383546
Pt 8.268481793438077 11.264519208528018 9.280874794186612
Pt 11.587572892118637 12.552094943851044 14.667005719059928
Pt 12.462299480407808 9.888747104038476 10.435084659295322
Pt 10.345875906780254 10.341925696534693 12.152805065015558
Pt 10.859271787907055 14.478290238019621 16.231597144938128
Pt 14.51464286617875 9.363740323833875 13.514167148532604
Pt 14.115325528842838 11.577296461343945 15.340401736860795
Pt 9.154928439204902 14.837891171132803 14.28048653984964
Pt 12.81491791788671 11.182789076122939 12.733561310759505
Pt 10.75383434242231 11.788171916666933 10.03403689635627
Pt 11.433322692141093 13.290518925037004 12.042159626070237
Pt 11.719107180671791 15.329461678756838 13.90960103301883
Pt 10.27290724174852 10.400167913774643 7.744349774601265
Pt 13.844347161914026 13.74063617101019 13.778296970394528
Pt 15.657325482206392 11.84735467495071 13.277944918871938
Pt 12.743568356439736 9.479570339017576 7.935626938636008
Pt 15.995622549358066 9.933075959769623 11.406199829972332
Pt 15.253612864505316 8.91638077886365 8.958578722473268
Pt 9.799722129690744 13.049008228816076 7.8527913158742
Pt 8.826026643168262 13.859197240285392 10.140067146795705
Pt 10.242272486405025 15.575974242775011 11.667101401053587
Pt 14.202840839978604 11.768245115857782 10.596202418561099
Pt 13.093447079350128 15.365532087818309 11.724063672848779
Pt 12.65149408888871 13.593673901498304 9.695245936362431
Pt 12.278549296698582 12.010822603235605 7.394314033068686
Pt 15.369946258355691 13.953069085227174 11.662162860393247
Pt 10.777443613594535 15.272453149203821 9.08606524038806
Pt 17.343043123029265 12.230670415637691 11.305183009356226
Pt 14.712809203645232 11.303419739976764 8.006141685081314
Pt 17.053159524459584 10.766441123918723 9.118280731632941
Pt 11.720714354472975 14.549963444112521 6.772983409767682
Pt 16.122529311157294 13.256479082310637 9.15032264093127
Pt 14.642241143746054 15.398697364179148 9.596406607630367
Pt 14.131637407722145 13.837346197639883 7.5060375825337164
