52
Energy = -264.73855627 eV
Pt 16.05297497946999 13.477707528335443 11.20825113090371
Pt 15.417337478406273 11.40816463430891 12.53859823766709
Pt 15.572112731985243 11.229259721982633 9.885329463181812
Pt 16.56269654651356 15.707980879511478 9.899122276560755
Pt 14.855086142864934 13.69022051600222 13.598360899947103
Pt 15.432359580980771 13.647510387750813 8.637341430611638
Pt 15.132663966491448 9.006774384597133 11.347849784976319
Pt 14.553474851608208 7.116561175169294 13.115499645644451
Pt 15.435527940893481 9.36358970071747 14.154331655669546
Pt 15.469205961668889 15.878038447197904 12.244189687945175
Pt 13.991492959654801 11.589683252940665 14.785283227924527
Pt 14.143198756196195 16.024845229951396 14.453142186080727
Pt 13.975573850822341 15.13106124184839 10.252210295976518
Pt 13.710690964723666 5.741352883771851 15.131755588524738
Pt 12.77120576772088 7.73661360819695 11.238157390717406
Pt 12.92978541214041 14.321697973368066 8.06899356527076
Pt 13.078640098834855 11.502694220292828 10.90177180151538
Pt 13.607872475316553 11.84265817084826 8.198982289824176
Pt 11.752326131512023 10.39095526369181 15.604860205546546
Pt 13.41319321263681 9.410748738040377 9.314745381895225
Pt 11.365235513189514 15.758173148980594 9.836887908735093
Pt 13.140239461131968 8.256021044236903 15.207723361798626
Pt 12.751773890416034 16.252053476955073 12.215667353086328
Pt 13.06408237904867 9.755987560176392 12.97946932409775
Pt 11.896594964716817 13.81792170176854 11.457757937602636
Pt 11.958303267825782 6.353943789888871 13.352811842505155
Pt 10.817142887418434 10.352103102566764 11.653832606142727
Pt 12.62694718023496 13.894377260763532 15.146885240984481
Pt 11.576366329788103 16.36374055608623 14.573246176084755
Pt 10.19144151393338 15.905429920983757 12.283072121899199
Pt 11.7033782218359 12.128976751083526 13.43744537275473
Pt 10.711615172257183 8.592407152014374 13.992263121978382
Pt 11.497089385842276 10.421129427097247 7.816013882567667
Pt 10.868771498944989 12.10382335211694 9.691966195317848
Pt 10.515527222531066 12.565838959506966 16.201698847305302
Pt 9.360514755824926 10.768915002042537 14.494534012970588
Pt 10.383041401925317 14.075056788867187 8.058125465427137
Pt 10.89959553556245 8.615994058973088 9.612273872122577
Pt 8.588510866598833 9.22629159821162 12.499023754301398
Pt 9.544483673755481 12.618022211786485 12.01792301721397
Pt 8.907247745650464 14.774058202594276 10.25294834314447
Pt 9.988691249112286 14.42541656102875 14.491244539794517
Pt 10.179353507020615 7.224832769078145 11.740836553089324
Pt 7.975544429340049 14.524295312739845 12.768073651552799
Pt 9.706551468230387 11.892956794394193 6.704494648638571
Pt 7.994515836866029 12.986780947911953 15.001714944130711
Pt 8.406303310007752 12.49503934664179 8.835698304197544
Pt 8.885458905470493 9.88415169961238 8.280878713688683
Pt 7.477873608766271 10.56498733450373 10.461137367503904
Pt 8.335900148436187 8.115127700214302 10.097327787522275
Pt 6.921204448151502 13.074142332195175 10.838456003762222
Pt 7.355682898937652 11.49531099970145 12.939934941257759
