5
Energy = -16.97490429 eV
Pt 9.07328605011684 9.404627741434345 6.73220335789315
Pt 9.11805215897959 9.11420776761722 9.099772341442172
Pt 8.742043923485264 6.832481811413761 9.758092652849252
Pt 6.873155112911428 8.34956303662785 6.541470761584237
Pt 6.718225824651471 6.823882713051649 8.393223956375785
