50
Energy = -255.01189278 eV
Pt 15.019954488176412 10.072272016989688 9.253403746494607
Pt 14.050591407483939 9.506314303861625 6.924188134180678
Pt 13.924342362834748 7.588373703756606 8.949594496901156
Pt 14.275737625582442 12.035376770113947 7.396869221518326
Pt 15.682420075211182 10.75115795431011 11.701474156330944
Pt 15.351459912413693 12.58743783071944 9.855073716690411
Pt 12.711120849262953 7.011893222650201 12.738311220894666
Pt 14.693602018226798 13.046045101854475 12.475834198326504
Pt 15.302699768386608 15.060404455785102 10.723477338793886
Pt 12.441956436611328 9.958716261930883 9.69203738116579
Pt 14.593370720822124 14.487368847212773 8.228218845315988
Pt 13.400302620614015 9.372296400131102 13.943269382089134
Pt 14.15669260739361 8.617482535972792 11.39953248302118
Pt 11.822828397021565 11.083695464481766 7.185391434758452
Pt 11.83373226157535 8.407464993856175 7.611204077419209
Pt 10.161656400411113 7.279341189852937 12.690443329246097
Pt 11.585429599683703 7.356202035780165 10.33246624750721
Pt 11.477578649318893 7.815180587308963 14.923905913728433
Pt 12.069641720817733 13.713953158786383 7.698642262069027
Pt 12.69842826585838 12.51215732104825 9.898829039744543
Pt 13.014319630982326 11.054369316469401 11.983777865033685
Pt 13.041383580348239 12.156273637394465 14.421085464753576
Pt 12.701189674782144 15.124240865449233 10.002271786801483
Pt 10.834022265766398 9.876675608659871 12.825890029713998
Pt 13.544664297510623 15.326751154935057 12.568150167528398
Pt 8.611926985707171 7.401002910868436 10.633987977672351
Pt 9.974493857357336 9.65547688815855 10.317546567080408
Pt 9.681652420147374 7.2896657609565105 8.308933509231244
Pt 11.033831293558618 12.492178839035535 12.650734521446532
Pt 9.67955914462998 12.503257765786914 7.670889737434155
Pt 12.040512053177896 14.582151709415102 14.453752548622438
Pt 11.293072959300638 10.35487355125385 15.452645855868184
Pt 10.169478651752666 14.709071856293187 9.494523359349122
Pt 10.176978185537571 12.238419514018329 10.154823933712152
Pt 9.55220106145351 9.824624760263891 7.633387335279901
Pt 10.989570376583456 15.064496091857528 12.013143591073035
Pt 10.971770351767523 12.866441260155685 16.072849688182444
Pt 9.135252994272614 8.984123282900853 14.673332964257597
Pt 7.566462627714475 7.795891807624697 12.956674565916888
Pt 7.385971554871998 8.601632643553678 8.604028037312144
Pt 8.770321616762876 11.258446980446578 12.085519557451462
Pt 9.493019580380023 14.041837307742494 14.086457992976802
Pt 6.990078208565093 9.560548664380406 11.044079431417725
Pt 7.728519279800042 13.705028778053352 9.154611546767988
Pt 8.90602486748606 11.578133426076775 15.083512618090706
Pt 7.640924448776883 11.16861788421147 8.957399338616113
Pt 8.5125730976213 14.17938322253446 11.633838089694912
Pt 7.017446387567507 10.28392785121913 13.65632354174874
Pt 6.57930820362116 12.273182325690176 11.148500345422924
Pt 7.154242833796119 12.964571343852986 13.652052761089958
