5
Energy = -14.01647307 eV
Pt 11.618054986002265 11.404399539513918 16.521045925601555
Pt 13.505856468679987 11.09394990928518 7.234451140563447
Pt 11.812808609545774 13.52275138368766 15.279780033251116
Pt 11.669700690802383 11.501413299774086 5.851803834793127
Pt 10.571223704961211 11.655130327730605 14.29056352578187
