53
Energy = -272.31361019 eV
Pt 10.13735874987774 14.324271895085662 7.450370917523601
Pt 12.194560526733525 9.494186299509153 6.802197912365192
Pt 11.21365948792348 11.960649771270827 6.724387213243465
Pt 9.633146367430808 9.792976892911238 7.459097989536031
Pt 14.874003307055547 9.25953941288296 6.869408397027187
Pt 8.552984741998106 12.311077085819852 7.9160865537694765
Pt 13.742194373169047 11.648845343915987 7.453873785891646
Pt 8.388250183815936 14.403570181785392 9.528509717499576
Pt 12.461839465438587 13.711387697244213 8.447045884660307
Pt 7.189071695950034 10.14761397659345 8.518829824313409
Pt 15.945069351205715 10.925355067249212 8.58304574940346
Pt 8.577860175209835 7.83963761296736 8.945083053160038
Pt 13.426037331810742 7.22011445392623 7.644214541688728
Pt 11.069690564117908 7.792820519078793 8.486530321109615
Pt 9.019208016938656 9.951360592273236 10.453485310748766
Pt 12.675885368439722 10.10974908106462 9.343097773211875
Pt 6.0488429020817485 8.038993293135084 9.742694442092978
Pt 10.617520727790609 11.608484389534302 9.281290933661609
Pt 14.744481687327028 13.021359615645 9.629141081000485
Pt 7.137689930199099 12.247120159558033 10.181460064487531
Pt 10.880959244555005 15.47911139512832 9.672399673174178
Pt 14.744908371482836 8.573121903242216 9.457261755049103
Pt 7.7348541501462345 6.479959334470049 11.005901751918616
Pt 13.20900735444017 14.771013711660775 10.819895660714547
Pt 9.40133790116839 11.338381487443016 12.476375671220906
Pt 8.919186380237278 16.189654665852927 11.41114654277265
Pt 15.018027632292274 10.696469005244944 11.008163200880626
Pt 5.468936426327315 10.40054303751605 10.677840645536287
Pt 13.980838228303112 8.47243878271559 11.963062373045563
Pt 7.112037408639598 8.901596739682727 12.04348427485898
Pt 10.322751775081649 6.3976801113440445 10.639501928936173
Pt 11.290584552236062 8.95203135072001 11.181681430612082
Pt 12.915357903547246 6.751954265484505 10.246145577596176
Pt 12.531422843651836 12.155067128949394 11.000630528947248
Pt 10.26341276420771 13.330113544346585 11.162204264847693
Pt 14.600774252626355 12.972520709809531 12.352932400677199
Pt 11.51494424634454 16.357179799579306 12.037937494762563
Pt 12.728122735276646 14.603751965087044 13.483199032017312
Pt 14.39821322981276 10.554379518893484 13.52621331188934
Pt 10.011439905761645 14.72827098939212 13.37094509626643
Pt 11.776311817999499 10.734948320698651 12.97478039654724
Pt 7.703545442886889 13.928634904986893 12.159451088415127
Pt 6.797835881646529 11.49218899736325 12.793308022101716
Pt 11.913423438431195 6.899410970722278 12.804500731720198
Pt 13.42987671485275 8.231005925702666 14.50864064438229
Pt 9.344589635469141 7.679888456772959 12.725465170101508
Pt 11.25716119078684 12.854802041945346 14.764565252309543
Pt 13.89675137722879 12.792423016355746 14.875005713260153
Pt 8.62443599137499 12.765307775940785 14.437894957879857
Pt 12.555020358975156 10.563982360315489 15.488826352994296
Pt 10.84317915504833 8.729058282256547 14.58712817383355
Pt 8.414953907674299 9.660917105940646 14.170715470852992
Pt 9.922541398666786 10.929177624678626 15.889042515177334
