54
Energy = -277.31479084 eV
Pt 16.5976336322371 14.577468305390786 10.832186838802233
Pt 16.468218255637005 12.282722091088255 12.161400624677444
Pt 15.474922741268026 14.605905818346013 13.244550988649053
Pt 15.32765097600033 12.36367651982437 14.712061441660746
Pt 15.729377688607457 10.006935374032825 13.427644646016118
Pt 15.022846017060488 16.554278234565995 11.488567323398806
Pt 15.699689117651092 12.562083022738795 9.52197158876397
Pt 15.531634084138194 10.156932191189712 10.76717829682643
Pt 14.352159759043886 8.14679652760228 12.183112839947114
Pt 14.34414691585383 14.91789434069598 9.421570551682125
Pt 13.324484035067718 14.014492497869744 11.705685826009713
Pt 13.916927457241995 8.463744804440607 9.392625921157697
Pt 13.994568193930652 11.717354619886686 12.610636845305699
Pt 13.748984062330836 8.8766868267599 14.705292242665447
Pt 13.108779404706153 16.11201639109209 13.315366143181075
Pt 13.865740603644957 14.54320976716794 15.334992882517025
Pt 13.234543549562947 11.16152152542672 15.89064947130761
Pt 12.636116024612168 6.666404456613281 10.854684768908609
Pt 13.457112140384815 12.921480565979682 7.836511322941518
Pt 14.9463954246046 10.532216744918978 8.182102817547236
Pt 11.964782352967969 10.49111446274025 13.707295086809307
Pt 12.529973375167305 16.51390238759824 10.74257079636982
Pt 13.161903519351178 11.911897360600504 10.147120662444976
Pt 11.896067773226317 7.543881539185027 13.258726395309512
Pt 12.384320246286977 9.602961498612606 11.264333152166278
Pt 11.923470948177185 13.377534286449801 16.62420775742063
Pt 10.489598075652825 15.983482808387272 12.391159880752832
Pt 11.835544479346916 14.855759186412811 8.614353112653987
Pt 10.92134750414793 13.848574351117925 10.923639901910049
Pt 10.58414461119361 11.323992889323202 10.323160500312351
Pt 12.353317169334073 10.363278204672593 8.022229211745785
Pt 9.279657603472833 7.900206526479333 13.929805978532398
Pt 11.13790320886274 8.770614916671882 15.534312054390854
Pt 10.457954235379786 11.275809184206665 15.8491622403645
Pt 12.213763603260624 13.214919701680389 13.922416417206371
Pt 11.283593315086613 8.174332522006166 9.140640481976869
Pt 9.936329883999948 9.668989484538775 12.188215286228887
Pt 11.077532858004549 15.276431957737561 14.849277150574935
Pt 9.180839278980725 14.579220738011214 8.281111728707744
Pt 10.124450430743481 7.127063488237661 11.323274406508073
Pt 7.522459908052693 9.856037588089952 13.15491226086328
Pt 10.760074010743642 12.485824047555779 7.89217562924337
Pt 10.08747880909799 16.46574209092453 9.812388460562957
Pt 9.328911259889805 13.664294676346877 16.08705396339628
Pt 10.080431873856732 12.183170493868962 12.795029574467119
Pt 9.685116363230103 10.0811586550058 8.25706931096118
Pt 8.229039502262411 11.838627226118442 14.59416137855122
Pt 7.649015479615258 7.642302257755674 11.773135532425533
Pt 8.662540592559457 7.8538222487808 9.227815652987376
Pt 8.79242293419797 14.31961454701289 13.517207992739966
Pt 7.853134144255249 10.04060879617802 10.463800854784653
Pt 8.451336022758838 14.568518533999235 10.876856130281013
Pt 8.372837926326135 12.32971585366607 9.323008427736632
Pt 7.611526741301144 12.267327350257496 11.924484512654782
