54
Energy = -277.46261754 eV
Pt 8.063891859443228 9.998143372240776 15.547587195203581
Pt 9.429429939076066 8.070212621348215 14.220504130334671
Pt 11.89940224019345 8.150408671048238 15.403839553738475
Pt 7.4938672193855895 9.614696512025867 13.01483525215421
Pt 9.711861683430229 10.896834513299481 11.219654282222084
Pt 10.697239800935744 10.266459167954087 16.250990348039828
Pt 12.119321452803737 10.129801281106213 10.559242080659468
Pt 9.1082380523853 12.309454407798247 16.457713661988628
Pt 11.996330240489478 9.415177718871726 8.016035865485597
Pt 9.93847353357414 10.554486437636157 13.77194357636804
Pt 7.325171383726695 11.896305285109612 11.499474924080905
Pt 12.368469036299757 10.208542701650483 13.11809265081871
Pt 12.430014889660416 14.888921458726141 14.533166922847697
Pt 13.290773710676886 10.467699678991798 15.593144185657854
Pt 14.28575234601577 11.606166726785972 12.15771870827541
Pt 9.745599127040421 14.20282355947391 14.739681274138361
Pt 8.141164087729456 11.276051192726026 8.854616645696252
Pt 14.127702291896995 11.087235524223525 7.843018541792022
Pt 11.777093080606646 12.691036643589113 15.987376214802733
Pt 17.27323618409925 11.198573350696469 12.113850282231493
Pt 10.811783735949957 11.843875879195354 9.058573699981427
Pt 7.250362529964025 9.417248225945078 10.411291122498167
Pt 15.602693514560544 10.644694969514838 14.22637638928062
Pt 8.271351649093011 13.751080977200179 9.793849835675797
Pt 9.331511906847622 8.229991563450874 11.519987341358929
Pt 10.59015897591171 15.732953701340662 12.798377705547814
Pt 7.931010778558751 12.27465413060939 14.056248494995687
Pt 14.106874097037416 8.441871115289155 13.95399333098567
Pt 9.132615729344742 16.117981951901466 10.652570337240853
Pt 11.347395985932543 12.636210987371664 13.478018184228636
Pt 11.6007155641441 7.652898655592473 12.824714533141584
Pt 10.563137303078904 13.446136158694756 11.088703657265954
Pt 9.848624275182848 10.47881571462075 6.895483656229731
Pt 9.529660771442497 8.890000921846907 9.00249349842288
Pt 8.349294996918402 14.246925069586672 12.427620525620362
Pt 10.221564213699477 15.139384988845377 8.494331955310741
Pt 13.096105228784658 16.61945079943035 12.530162926567511
Pt 13.260688252369691 12.382619401079953 9.87598542868445
Pt 15.543230328741513 9.278126065739636 11.865850460247978
Pt 16.57855554143483 13.061419549261522 13.835105841988177
Pt 13.01509800073288 13.860433669128836 11.952136714583364
Pt 9.359314148511308 13.053890966726962 7.320389530150487
Pt 11.783016537419892 15.900986230272917 10.366216538680858
Pt 14.19559734973655 12.846369015406209 14.926225306682369
Pt 11.584306617992395 7.673923078479196 10.18251723304387
Pt 14.918747138866966 14.962128849385623 13.339834072220107
Pt 13.84721458849356 7.359100730051344 11.517321758214447
Pt 12.01426072591969 12.318355226571992 6.876605589069501
Pt 14.229945873897092 9.01508852653311 9.505041545403728
Pt 12.845349651330718 14.421863493128692 8.298449530527636
Pt 15.322609246427248 13.566013701475631 8.794769760674441
Pt 15.820753037532253 11.138722993722396 9.860982453103379
Pt 14.40217080584582 15.454272219893017 10.437819120860414
Pt 16.094701432241862 13.482108706494248 11.310915537593742
