52
Energy = -266.41437508 eV
Pt 12.491697342402054 11.418431719256219 15.841784597807516
Pt 13.0115951507203 11.176984840202557 7.596227684487304
Pt 8.294173134503204 10.614835522102315 14.756166569245096
Pt 7.206244159332245 15.151094035185377 10.418758599869173
Pt 16.0040719575024 12.14351789683487 13.041329248473977
Pt 9.194307067286253 8.410129954994757 13.448045758301388
Pt 10.694422482159446 9.912712781653187 7.700879375116459
Pt 6.789233257940746 9.970673073000142 9.88318330163674
Pt 6.796768452333092 12.542194160320413 10.279194914850462
Pt 13.29619036975034 7.612289401553842 12.556757858193455
Pt 10.430776753658904 11.548324046340188 13.678996415858197
Pt 11.522747169759466 13.517725999286045 12.323665910562477
Pt 12.811772647565677 15.458668000817614 13.561435172040355
Pt 8.413514712771585 8.611081081294884 8.227477655817646
Pt 16.704534616914675 13.323534449041066 10.779945876215116
Pt 10.891444261039291 15.216563503534184 8.666146646014742
Pt 15.194288688176117 12.522670955206436 8.651410352845643
Pt 11.547566831027074 13.759224372719007 15.194991453326661
Pt 10.678782772396959 12.564658020849873 7.4236128954562695
Pt 11.36873901293022 7.238388408348077 14.36408026515348
Pt 14.984724510644252 9.660836567368953 12.922475464463004
Pt 12.578635284613426 15.395896331512972 10.789108171827541
Pt 10.174064518808855 15.453447238747804 13.769922024533304
Pt 12.914863800075151 13.714146005543322 8.398667693757616
Pt 14.891589695923837 14.932958123823973 9.62064270932328
Pt 8.733632914964913 13.770970687368056 8.910426292703804
Pt 10.635258131706191 9.57891121735863 15.442130116787697
Pt 8.494149317300499 11.243618268083676 8.363206888465422
Pt 14.821816141344474 14.446163898668567 12.223642466914836
Pt 15.06347906825133 10.968818215720017 15.208544554338564
Pt 10.933107395943477 12.612990706344705 9.992872414407543
Pt 7.989579659158686 14.546401100927104 12.729583603933854
Pt 9.939486543272178 15.338925047740855 11.0700909712176
Pt 10.739225095125642 7.04381732494893 11.786848175132993
Pt 12.474514302178115 10.368142296669962 10.059270316406085
Pt 7.443635879576427 9.98507396097993 12.363323416267109
Pt 10.625554337168685 7.71291362845143 9.21139418067933
Pt 13.21053512916005 9.045281064649656 14.819620064155808
Pt 14.45615315163485 8.673996166636364 10.506367599355109
Pt 11.464751813940756 9.547288257480917 12.339132606483048
Pt 9.810831267796797 10.264652987213935 10.453984324438702
Pt 13.623279048339676 12.464399984715824 10.968862297747402
Pt 8.905257642808396 12.32254445830402 11.72685878286014
Pt 15.767197465943369 10.881708410067855 10.711338498946278
Pt 12.793300668182525 6.680749660741924 10.115980994530208
Pt 15.18999010395178 9.930964717523517 8.320407721269682
Pt 8.467127689583958 8.065942734079949 10.861637524673217
Pt 8.89708188767263 13.322166262693164 14.847959254413189
Pt 6.802780598423432 12.300819156850041 13.328868431032173
Pt 14.138258225138197 13.391287034216605 14.593428256269016
Pt 12.988261943100108 11.478077285321705 13.227460422965569
Pt 12.929824564192195 8.517047661055654 8.151385341165291
