55
Energy = -280.81012572 eV
Pt 19.540705185243482 15.351497287597216 10.004244467316912
Pt 16.988256009355606 15.702536123903522 10.467268549925421
Pt 14.490478620170745 15.850634657163 11.154222547499597
Pt 16.294367740023954 11.264388150776044 9.405175304881837
Pt 17.89596149635333 13.264402577094808 9.658178963960138
Pt 14.557828809801661 9.340152563935504 9.527701965700393
Pt 15.305709932938965 13.81968049812398 9.663158374066244
Pt 13.736006734747408 11.70729302968272 9.837496884867722
Pt 11.970392741188055 16.012597896717786 11.890747250626696
Pt 18.830086510690982 13.960228268790907 12.097211176214236
Pt 12.701350059774903 14.148190759818513 10.048572215583818
Pt 11.292456384407524 11.919961157116099 10.477296243193889
Pt 16.296762798408434 17.160612457515413 12.547978504531658
Pt 17.633182409527592 11.639183738331052 11.657702656275205
Pt 10.247651688469526 14.219785839914508 11.212948474299228
Pt 16.100767956426232 13.89465682954167 12.336532908918832
Pt 15.57716387782533 9.919746098843595 11.762726447389598
Pt 18.900609457500106 16.61124994444112 12.175899934733
Pt 13.765166701958982 17.49856270380765 13.075885966095829
Pt 13.5127053454427 13.463326240672199 12.467220342772388
Pt 18.15180114196398 17.80148346980517 14.308051663828726
Pt 13.060408229905335 10.832851187911887 12.259542953844177
Pt 10.333772085306947 14.962221318514755 13.83771633788947
Pt 11.028768055143416 12.501889908248375 12.999645541343368
Pt 17.25856310446753 10.084674709799778 13.678877949513408
Pt 14.697433155331607 10.221086335581129 14.220688064476724
Pt 13.009632508640914 15.218905912242965 14.3978360537984
Pt 17.841919078258456 12.642350381641007 14.085335491148628
Pt 10.4974521948074 12.809937629693728 15.491616987182288
Pt 15.717769461947862 18.779352242811143 14.49309610266232
Pt 14.11914373163693 10.872479049310776 16.732575922807623
Pt 10.235061796178265 16.415084806979717 15.982829619325333
Pt 16.620391734947273 11.184224227685652 15.978032618854542
Pt 11.25526972712636 17.523513654638293 13.872133489064199
Pt 13.030722621796942 13.338497758765959 16.20976922365272
Pt 12.252368746082151 10.9625369206813 14.755732847966737
Pt 18.278476330139735 15.185084501403727 14.497604368762374
Pt 15.003537176334387 12.823623014281269 14.507372256501881
Pt 15.657776117935487 15.376057743332751 14.479621386487027
Pt 13.226115103152509 19.079220317547104 15.16767437475053
Pt 12.716209783420146 15.734024846418473 16.99798968544136
Pt 8.855539645992254 14.43196048148889 16.76141527051708
Pt 10.762589975653782 18.92638582258098 16.02696156000525
Pt 10.152558149275377 15.880340229163014 18.518726411730892
Pt 17.534859725883475 13.688064842188483 16.487513133667843
Pt 10.823093346483802 13.375005244159025 18.066375839968718
Pt 15.84916607002699 12.382735018417357 18.112118895109496
Pt 11.568226454207112 11.017757553068042 17.30607437313838
Pt 13.191735923706693 12.505340101717877 18.772969323894014
Pt 12.682903027332591 18.262623540295145 17.609621469407426
Pt 15.241121553021499 14.74556699941943 17.030334696532666
Pt 12.481230267771222 14.9874052450705 19.493519462555124
Pt 14.67886805151515 17.12621255784302 16.141445035254186
Pt 11.739442096498204 17.422640288637897 19.771214546058275
Pt 14.932022943440968 14.273734890454772 19.603357439593562
