54
Energy = -278.51470691 eV
Pt 12.90450905712691 12.92428213 14.27579322263836
Pt 12.93385109779068 12.92428213 17.14280633300662
Pt 10.598392813726756 12.92428213 15.867355160201123
Pt 10.530330924712144 12.92428213 12.92428213
Pt 8.40648967726203 12.92428213 14.501246800467763
Pt 16.757531354062596 12.92428213 14.630424718782168
Pt 6.296429854030558 12.92428213 12.92428213
Pt 9.286322077299014 17.15080333088329 12.92428213
Pt 12.90450905712691 12.92428213 11.572771037361637
Pt 12.93385109779068 12.92428213 8.705757926993373
Pt 12.205913543708732 10.73188540628354 15.83997459389634
Pt 14.803922232813768 11.568090944475795 15.835378967531298
Pt 14.803922232813768 14.280473315524205 15.835378967531298
Pt 12.205913543708732 15.116678853716458 15.83997459389634
Pt 10.598392813726756 12.92428213 9.981209099798878
Pt 12.205913543708732 15.116678853716458 10.00858966610366
Pt 14.803922232813768 14.280473315524205 10.013185292468702
Pt 14.803922232813768 11.568090944475795 10.013185292468702
Pt 12.205913543708732 10.73188540628354 10.00858966610366
Pt 12.185345755183915 10.663332402586038 12.92428213
Pt 14.849653059654951 11.530576557611761 12.92428213
Pt 14.849653059654951 14.317987702388242 12.92428213
Pt 12.185345755183915 15.185231857413964 12.92428213
Pt 11.533772322755599 8.632038161691383 14.493848248901372
Pt 16.580888082894308 10.260836521358256 14.49000901610182
Pt 16.580888082894308 15.587727738641751 14.49000901610182
Pt 11.533772322755599 17.216526098308616 14.493848248901372
Pt 8.40648967726203 12.92428213 11.347317459532233
Pt 11.533772322755599 17.216526098308616 11.354716011098615
Pt 16.580888082894308 15.587727738641751 11.358555243898168
Pt 16.580888082894308 10.260836521358256 11.358555243898168
Pt 11.533772322755599 8.632038161691383 11.354716011098615
Pt 14.112321770581744 16.57548690479511 14.65584327870764
Pt 9.817261377161323 15.173279051553378 14.65440844625731
Pt 9.817261377161323 10.675285208446628 14.65440844625731
Pt 14.112321770581744 9.273077355204894 14.65584327870764
Pt 16.757531354062596 12.92428213 11.218139541217832
Pt 14.112321770581744 9.273077355204894 11.192720981292357
Pt 9.817261377161323 10.675285208446628 11.194155813742691
Pt 9.817261377161323 15.173279051553378 11.194155813742691
Pt 14.112321770581744 16.57548690479511 11.192720981292357
Pt 10.869389575913658 6.616930736932042 12.92428213
Pt 18.29054037964083 9.013332686600345 12.92428213
Pt 18.29054037964083 16.83523157339965 12.92428213
Pt 10.869389575913658 19.23163352306795 12.92428213
Pt 7.787025180261665 10.764741214333585 12.92428213
Pt 13.381437374061962 7.3585318240271365 12.92428213
Pt 18.366999133263608 11.645495161438019 12.92428213
Pt 15.81659192551853 17.70240141837912 12.92428213
Pt 9.286322077299014 8.69776092911671 12.92428213
Pt 7.787025180261665 15.083823045666412 12.92428213
Pt 13.381437374061962 18.490032435972864 12.92428213
Pt 18.366999133263608 14.203069098561977 12.92428213
Pt 15.81659192551853 8.146162841620882 12.92428213
