52
Energy = -263.57530617 eV
Pt 14.488716620098739 14.376511937519506 9.275352592742305
Pt 12.625308283924477 16.15052829667956 9.916120491137706
Pt 13.139933357883063 15.456746133084291 7.3125669960261135
Pt 15.380382966732737 11.735307609575408 9.041608903442102
Pt 12.80751468482112 13.13327966104495 11.913470015224267
Pt 11.563843792356934 15.614298686478852 12.283598340819438
Pt 13.476597104215882 12.899146207275196 7.2697465671585455
Pt 14.26298065388277 15.25809348681738 11.843331306012024
Pt 10.796761526527003 16.44618342982097 8.047466020416323
Pt 9.937449215248888 16.644893799286123 10.52519489386857
Pt 15.084987756759096 12.967120348540368 13.35671811456806
Pt 10.32474670551294 12.45137181992001 11.875893236617994
Pt 8.834492354886951 12.463113747599355 7.64582019169255
Pt 9.068997105899372 14.63283224351893 9.143188721208569
Pt 10.266364892734183 14.065700908058748 14.074997027695419
Pt 14.117847125741292 9.299939319261034 9.780771258281103
Pt 11.261846633536 11.33457701179075 6.93795329674683
Pt 13.71740008206683 10.356676426582759 7.380342078865115
Pt 13.317109532498737 10.746564065679003 12.645859908165573
Pt 8.91096637789725 14.570529152588836 11.846251855003803
Pt 7.928738131414031 10.720194155358183 9.726968818705188
Pt 8.334740812748633 8.828114567248518 14.668405279167644
Pt 10.971730435431969 13.985071427827162 7.160836425426057
Pt 9.589552720673973 12.286131466092138 16.006195897451818
Pt 10.368714182635385 9.699902008043626 16.221556997227392
Pt 9.266475733662322 9.718436613679499 7.631059615261564
Pt 11.702405144888807 13.987961932950029 16.305046013864125
Pt 7.703628317499808 11.430418828416178 14.513053427525524
Pt 13.050816459165707 14.56774388589878 14.138184202741364
Pt 7.793806599975288 9.245396599849284 11.92424642725726
Pt 11.491008014685795 13.838379581588113 9.70780308402264
Pt 11.71747413944756 11.642488669888557 17.439181922249272
Pt 9.58074166699631 8.494582692158364 9.982967605578812
Pt 11.609814808026519 11.688073067778143 14.406066649697554
Pt 10.332239667079424 11.557320108375716 9.45590861757386
Pt 7.739010023810799 12.083855463664623 11.950293910617628
Pt 9.669413878306809 10.4225420077489 13.257925107143038
Pt 11.315295823042085 10.018304693735523 11.25210980923013
Pt 13.814143524350838 12.492709674988957 15.650212275607918
Pt 9.939264833635859 7.633060599904118 12.41678074203036
Pt 12.930788071955291 11.66082657720356 9.708875684257356
Pt 11.84665946749454 9.058874092978265 13.93846810755486
Pt 12.163334754472514 7.654965650919719 10.727793426373891
Pt 16.056168054766985 13.357168975833424 10.984952472619085
Pt 11.733114907696852 9.072986458127318 8.52417614792215
Pt 13.133031510839974 9.938329693620119 16.144583897954103
Pt 15.13472413434892 10.488551584197904 14.43602301919642
Pt 10.385172398764109 7.260465019502964 15.050823887936891
Pt 14.397782837630029 8.430132143329791 12.224640477935024
Pt 15.64938219347169 10.803292816550924 11.586869898010827
Pt 12.395340071075438 6.6775439776457 13.173392080401866
Pt 14.08934469486523 7.970148538146716 14.803769140591468
