50
Energy = -255.45780585 eV
Pt 15.063620598680707 10.043183233580782 15.789793881036132
Pt 14.22297601293306 8.386032627717057 13.865784468173649
Pt 12.580382439800335 9.573099483583103 15.627728893695581
Pt 13.290814984454075 11.666165175113683 17.039656309048315
Pt 11.520010070539428 7.930375181969682 13.852152170136485
Pt 14.54323217495042 12.56665603049655 14.897880688127538
Pt 14.724522092819402 9.126670289060748 11.412066497755553
Pt 10.516130757878354 7.89937699124803 11.18204247645331
Pt 12.100309592739025 11.689074677856794 13.956218129412656
Pt 13.661451821932832 14.734648498588422 13.670783400258532
Pt 9.96658864274676 11.268568994540681 12.457666130028297
Pt 15.341398089708065 10.570221180603696 6.5909537035114
Pt 10.762912331864642 11.592735327010635 16.225572583680947
Pt 15.71677514165219 10.69902167531286 13.364977945440456
Pt 10.05413464256147 9.09695949814679 15.709649212511145
Pt 16.090646663487075 11.289535147704722 10.827715504194668
Pt 12.24543806379829 13.734519096625304 15.72009911176348
Pt 15.672924684470043 13.316080569231444 12.64300779820846
Pt 15.975490617529605 12.212228697392378 8.383905923740137
Pt 16.584609037514056 13.905457452999261 10.23428944730497
Pt 8.689098703990744 15.380875948948079 13.167419571456579
Pt 8.638638837589104 11.128002859464448 14.83196089508212
Pt 9.0775907192737 8.838726044170759 13.347712318595827
Pt 12.979365847698315 7.224919230454833 11.762787224585098
Pt 11.27809064684038 15.689303267410132 14.38859518545086
Pt 10.189998784283711 17.60396258028826 13.064880931292397
Pt 6.931574951389039 10.346556927238728 12.978549157828507
Pt 10.219142476316286 16.05656963378219 11.073519510746872
Pt 13.750527512019682 11.713540902309342 11.950499900768644
Pt 14.673141737021343 15.509528987235253 11.27389198513342
Pt 8.02878397235504 8.746157388572023 11.038647254832206
Pt 12.05484804584728 9.819328092850483 12.08946528036689
Pt 9.530510847939265 13.681613173638615 15.066053098511244
Pt 12.38967147772536 15.894519361991943 9.543983553863866
Pt 12.718989540902648 13.85337805490713 11.057067280238707
Pt 10.845194334909994 13.656704580883927 12.774151280386203
Pt 7.772212636611925 12.91404791366253 13.106712092047466
Pt 12.555683171928488 16.71651304628538 12.198975521544302
Pt 15.097749958288093 9.542945680717281 8.943379374878532
Pt 14.311653034840699 14.13300325151674 8.954517001539065
Pt 7.945414538397759 11.401573756607982 10.800443941090565
Pt 11.663371342093262 11.670210061949927 10.274420093765022
Pt 8.631434745801691 13.94071742211502 10.852206418069022
Pt 9.747945748466915 9.809984540922706 9.431077512510143
Pt 12.501876599583913 8.940314945209296 9.562539511607227
Pt 9.915491392417337 15.020840297204188 8.81312780488087
Pt 9.488988734980273 12.411543067861066 8.944012915986894
Pt 13.472250321604381 11.420224100271117 8.224401815465656
Pt 11.901041818804543 13.454322521968113 8.18023341553031
Pt 11.101480689933844 10.846982729043368 7.5440801660297705
