53
Energy = -270.34468411 eV
Pt 13.240846605508418 6.838778241188741 12.745564030428895
Pt 10.932158529493353 7.140762589403131 11.501902428421035
Pt 10.946375712317899 7.041383996314272 14.145243075032313
Pt 13.078523115766295 8.538210889767202 10.582100505495395
Pt 14.68870619798014 9.01424996548036 12.870617526246019
Pt 13.210714047336232 8.353144924510499 14.999003719296647
Pt 15.124239849871646 10.126166314600288 15.234935368368577
Pt 11.945684884522182 9.351942114447759 12.838832477207898
Pt 16.22792173767784 11.224713364722561 12.728045555084122
Pt 14.343610226786652 9.299835264150806 8.399059683513448
Pt 15.588421598917426 9.786277918678284 10.590051457153267
Pt 10.442665331961177 9.51929174991822 10.558023000001361
Pt 9.333289319037972 8.910382770359409 12.960495785666149
Pt 17.030308100320642 11.856838784940305 15.176136344096017
Pt 14.483183119683451 11.956668568179383 8.559053581570137
Pt 14.079758733646834 11.75667961341674 11.120498556710103
Pt 15.995114890475431 13.81436762255865 11.256501582521993
Pt 10.699628519245143 9.365844986865744 15.270622196868946
Pt 17.713077699878976 13.385618946750448 13.167006212914256
Pt 13.357346325090557 11.373612684768908 13.638118859699116
Pt 12.784033686237029 10.772603388579578 16.197980521159526
Pt 12.254941259325564 10.667433738432731 9.098835778209455
Pt 14.713135933246047 12.629568091810253 16.20277928154848
Pt 14.718035330639406 13.62791026928871 13.655491284031804
Pt 10.07825348519043 11.970682639030095 9.650886950367635
Pt 8.548171106205674 11.020256469828459 11.650941901537385
Pt 10.31471085493537 11.588703364062852 16.44891684402466
Pt 11.461418820857944 11.89705989769621 11.90419019332944
Pt 16.593322910426703 14.41399235836243 15.443029727841877
Pt 12.239323775695246 13.367510268854533 8.986198143162975
Pt 13.0718922456918 14.127255449519216 11.474200833820078
Pt 9.470665231024194 11.446924431536495 13.995462509485877
Pt 12.221375540136071 13.39461980951703 16.477504360427716
Pt 14.035574928521731 15.247084492654444 16.10249135297734
Pt 16.440989395488653 15.717912531912134 13.086264474466795
Pt 11.964656992321114 13.6793894916626 13.868599015240687
Pt 14.605057229493214 14.47592763384235 9.132056325444529
Pt 7.950619683222654 13.292801203160309 10.609896185221132
Pt 13.341479305759528 15.930340082954237 13.360763456120296
Pt 9.70606712241075 13.80578463271757 15.277615521247752
Pt 10.129670913052506 14.573945728726827 10.0128167704936
Pt 9.592861734864107 13.842303049270624 12.571811743396298
Pt 14.860464588838306 16.278059270504887 10.987300778603755
Pt 10.626804202563243 16.278223743226512 11.88861723588984
Pt 15.953180033794474 16.931156403369535 15.374806601094157
Pt 11.488446340431794 15.804650502189642 15.566347557404537
Pt 12.308555875339625 15.995832762298232 9.866281950913354
Pt 9.294615373685696 16.094360151751353 14.107298226292702
Pt 12.785544285231886 17.865220779883376 11.617045461005683
Pt 13.409790399579592 17.677565563438208 15.304177401224123
Pt 15.09174604548997 17.957012758095605 13.063658440470665
Pt 11.112099643528843 17.915190788114632 13.909110614393942
Pt 13.048519255046315 19.60005014544332 13.557888244109138
