5
Energy = -17.19627037 eV
Pt 9.325671234082963 8.233517666081722 6.34942125396782
Pt 10.70974467201797 10.58740068031501 10.08086156235571
Pt 9.553138789058643 9.063878661586148 8.514119682385555
Pt 8.760815335033369 9.33036717422678 10.852982152104236
Pt 9.862729440971398 10.996935288954532 12.41471482035102
