51
Energy = -261.82909777 eV
Pt 11.4569671768016 11.041599639190785 5.447497136748332
Pt 9.515065867778501 9.259009733813325 5.864534054767436
Pt 9.192255159956742 11.889830858326887 6.443912266113155
Pt 7.582798540116796 7.606530630457008 6.5226119275565875
Pt 7.150822659430594 10.182243026636398 6.812048983863873
Pt 12.083149678888486 8.610930751647938 6.33996286045114
Pt 11.581036672789546 13.057566292264756 7.157048279027057
Pt 10.111090646007128 6.908606455410572 7.047029249923723
Pt 9.191171715557639 13.958280453302406 8.14337127143504
Pt 13.480238877416575 11.155943100990092 7.2157268564843555
Pt 11.238630609532123 10.249332766785018 8.091362071972693
Pt 6.333625345165133 8.406144655735604 8.687525394368016
Pt 9.21372973463118 8.782816923535043 8.675162544371256
Pt 12.554928711237265 6.762422851552714 8.071055951943347
Pt 8.555955499078578 11.281830910024794 9.091632323171595
Pt 5.884174639140425 11.086718949547606 9.052319220082252
Pt 8.134669340245718 6.367945236656598 8.852329604521648
Pt 11.453655903085439 14.8993818020396 9.039452384982383
Pt 6.9141013896749115 12.790219254253161 7.315401444600988
Pt 13.850216333982033 7.9460796262754965 10.031324840182018
Pt 14.393725931183045 8.664672023903325 7.603878925335612
Pt 13.364460227424003 12.962530370350443 9.22996797672021
Pt 12.032527960886206 13.93774082312619 11.417641141010993
Pt 10.603325157885575 5.433418865522233 9.209079126531028
Pt 14.54952639772872 10.49067284029359 9.546622159261196
Pt 10.876610585097401 12.182939593134273 9.741254976316048
Pt 12.160541542360471 10.04159622816252 10.490095458385028
Pt 10.8392091199647 7.7813214077101875 10.450162959201911
Pt 7.135409704235216 13.386329324897195 9.854065450918352
Pt 8.086146263286427 9.439973566959438 10.87738258580384
Pt 6.817059046033542 7.22419427310679 11.04232312221626
Pt 9.130700677247004 5.964323198097586 11.303278853286399
Pt 14.031182874151984 9.446674694119347 12.227579087059668
Pt 9.461295208573297 14.541832273557779 10.772407751220067
Pt 5.205145643197581 9.316696998124687 10.857074838789824
Pt 12.496200381421266 12.703684602443928 13.69672353271985
Pt 12.772305760640133 7.042532235506048 12.251179867043382
Pt 9.240513765183731 11.73797725812741 11.665019867074957
Pt 13.75531892210773 11.926172637553442 11.62386901919224
Pt 12.990263014391084 5.4071119953145 10.28183031277783
Pt 6.236922599832774 11.565666517675316 11.720430721493134
Pt 10.319300037906505 9.509206011425979 12.2410574183879
Pt 10.411515439404102 7.110149893410583 13.332684780480085
Pt 7.833427751164513 6.837426387886068 13.45352900442161
Pt 6.7035339496947115 9.25673560124321 13.05222932901554
Pt 7.5532130144499705 13.743566849942393 12.409696337914024
Pt 10.063879593347224 13.54685932515332 13.252812498151217
Pt 12.186012366786857 9.013490198232175 14.002513208263869
Pt 7.919236437570464 11.50845704866415 13.872125152042816
Pt 10.59214677447347 11.11018397096843 14.351138195634565
Pt 8.922951112084808 9.084320827171535 14.430929436993123
