5
Energy = -17.6996466 eV
Pt 10.57478471104391 9.9842276113091 9.568419510091966
Pt 7.151370229012205 7.737371681203248 8.153242786976307
Pt 8.644877370203352 9.860357286982318 7.798247411192526
Pt 9.72872634249741 7.69530248251249 8.614449928674881
Pt 8.208586347243118 9.031086145070459 10.173985363064189
