5
Energy = -17.65492968 eV
Pt 8.647041481435426 7.53367922732566 7.032692949141837
Pt 7.622423395917996 6.726392500842939 9.266070028789485
Pt 10.248819073345082 9.301318450749099 7.739276147020307
Pt 6.333130078985743 8.36670797753174 7.830458767758394
Pt 8.297328181670348 9.220644054905156 9.280244318644808
