6
Energy = -22.24904506 eV
Pt 7.0620113283991 8.197687562114696 7.173525151452631
Pt 9.199589447674963 9.496508449274438 7.837172965749582
Pt 11.293431829882568 8.676951543612835 8.801344867269696
Pt 10.066505482073964 7.423553971630634 10.51524978471015
Pt 6.822440193957576 10.324998035972891 8.470887413272887
Pt 7.961796185426551 8.286074904809103 9.607594284959527
