6
Energy = -20.88436159 eV
Pt 11.076847231370166 9.051336639786143 11.158394181504693
Pt 14.445759392602321 14.770774540449787 10.871895176115421
Pt 12.902150175639463 13.224087225706386 11.69573773308186
Pt 8.850275845237736 8.415863181412744 12.119081856850668
Pt 11.473015986906788 11.513265283962635 11.006120805545688
Pt 9.150543400683985 10.62251543487103 10.959734084941706
