6
Energy = -21.79453946 eV
Pt 10.178113764158924 7.996962659469224 9.592719044226468
Pt 7.812880110905493 8.741962322931233 9.961980403726859
Pt 8.797660019228054 10.64453729798866 6.334261457004512
Pt 9.470265554962202 10.334126632001903 8.710307287497946
Pt 8.485420414700174 8.396087721522878 7.445708355892231
Pt 9.161464219375992 7.810043567738068 11.877569569865852
