6
Energy = -20.94876127 eV
Pt 12.010233303751024 8.115144634602222 14.332225219091237
Pt 12.075664380320104 10.012313794255263 12.968961479770062
Pt 12.705954740628663 11.245819090293036 10.843192828427002
Pt 10.54025123690875 11.670795226945815 11.89682937386259
Pt 11.61015159077389 13.512126011770626 10.590413239950218
Pt 11.268377934142686 15.63306125659916 9.689399182901672
