6
Energy = -22.13724812 eV
Pt 6.764781012406061 8.109612249390825 9.309918417720871
Pt 9.784127749921801 8.434331420674587 7.238817178382416
Pt 7.422970058941148 9.521520143492227 7.227955349670294
Pt 8.882781717050628 9.615902056618122 9.369135110258755
Pt 9.125521197772759 7.028293221306012 9.321949799825461
Pt 7.664172263907716 6.9346948042818 7.176578248378276
