7
Energy = -26.98349479 eV
Pt 9.104987106458852 6.262348379687305 7.725908668090733
Pt 10.580369365583994 7.752502434540768 9.016276246725319
Pt 10.892011453152504 10.13111106970985 9.896042554742708
Pt 8.975362613384847 10.958670909215758 8.473303932816945
Pt 8.583762227518143 8.89008294931348 9.903881694802761
Pt 7.227584797123243 7.785146410221129 8.165837574882815
Pt 6.591736155868654 10.175951566401825 8.774563047028956
