7
Energy = -27.20197531 eV
Pt 8.758363088520625 10.291173694049697 6.760881242067358
Pt 6.779779530428551 10.246627556352916 8.377516560767287
Pt 9.70045513621326 7.939006731096441 6.494965824666
Pt 8.66929881907029 8.649014621276974 8.63403472704697
Pt 7.493804062583902 9.286121437591325 10.72623419325872
Pt 10.429467559466433 6.9153497486520905 8.838864937621201
Pt 8.431278694335289 6.935153101598533 10.429949405190568
