7
Energy = -27.04450911 eV
Pt 10.33985106315398 6.9603677033159705 9.840965500058532
Pt 8.336718409104487 8.432349957124202 9.710414394168527
Pt 11.721462129439479 8.779974862640493 8.605207037616529
Pt 10.565991724613447 9.322281150567477 10.839507720661382
Pt 9.666808544144473 10.195463872256902 8.519972422467385
Pt 6.289182320775988 9.534006642790512 9.072330178464252
Pt 7.603132797387699 11.298702799924254 7.934749735183203
