7
Energy = -25.91040216 eV
Pt 11.746130842394745 11.482372762125628 12.001985611106994
Pt 12.92794148128805 11.04580731681599 9.642047750420716
Pt 11.178402955325009 9.289038697928698 10.397590705735384
Pt 10.38880083055881 11.608879313460108 9.67837312510304
Pt 11.377594800454105 9.966015354597621 7.883982551997205
Pt 9.378902467058774 10.480653674503735 11.77829296161459
Pt 7.307564158091939 9.833594938238496 12.639605504185077
