7
Energy = -27.10908326 eV
Pt 11.374522386918647 10.55728197117585 9.107675155736732
Pt 9.446679257667881 9.657652264379488 10.343356539933065
Pt 9.866505118464355 9.136967176282651 7.733550583102757
Pt 8.461311576762641 7.687027586913134 11.430216677037665
Pt 7.498391914650549 9.878769073577457 8.450599693268787
Pt 8.123417297368302 7.508269940321396 8.983637847352904
Pt 7.81638156854956 8.16124110773196 6.538172623950154
