7
Energy = -26.79579548 eV
Pt 9.424971544423839 9.964784961742156 9.97067721811937
Pt 10.0927266056966 9.216616212215865 7.651532786363382
Pt 8.840040439763804 7.414851978521456 9.16015376046945
Pt 7.008026748628042 9.371963765971877 9.517333756818362
Pt 6.328673885622433 7.069988251321727 8.661687280953833
Pt 7.559539443937783 8.690450891250917 7.042637619522038
Pt 9.427746523212825 6.953069130261214 6.677702769039011
