7
Energy = -26.82625185 eV
Pt 8.657403523970734 6.3458509258279 7.293110565104294
Pt 10.318497303561843 6.610693668798453 9.180748453853743
Pt 8.249785147127847 8.86283973750425 7.222697294520841
Pt 7.948242217204089 7.700697452697883 9.485903290525476
Pt 10.005656516329832 9.171693238768952 9.122026813451392
Pt 7.815575375317627 10.287165609939288 9.881433448891716
Pt 6.866154474695811 10.866499297354173 7.643958192783248
