7
Energy = -27.23271094 eV
Pt 9.644452325395395 6.664214495382713 6.768758895046121
Pt 10.46657166244666 8.755525651239466 7.72471777540328
Pt 11.233528731862485 10.723362614421111 8.920810830887666
Pt 8.148191825392024 7.657316364205932 8.429995503100761
Pt 9.01540608832852 9.93632110024467 9.607284752775858
Pt 7.6971533688299525 9.990994017465479 11.723893406061457
Pt 6.640490278210596 9.118060037506005 9.67033311719049
