8
Energy = -31.33116491 eV
Pt 5.564388904483867 6.914371330233038 6.490254224638496
Pt 6.680993108772563 6.066073819841655 8.724068921368898
Pt 9.120671857336708 5.223944920954571 8.800900490003903
Pt 8.050951855641628 6.011687696616487 6.533496897071101
Pt 5.524842727612843 9.413058682289755 5.843216242777376
Pt 6.591462220150418 8.641703391346983 8.110479112078268
Pt 9.08522656267597 7.734085600305572 8.161228269609143
Pt 7.979348119463082 8.592959914548766 5.9342411985900245
