8
Energy = -31.19921785 eV
Pt 10.329091328332987 7.870854608142825 8.233913912787406
Pt 11.476054617042164 10.00184165259903 7.363858148188799
Pt 6.418169594454417 7.274190379198605 10.337572825624683
Pt 9.59802034251731 10.173190971454787 9.203220747728809
Pt 7.578094464976382 8.122019661223739 8.15905879718052
Pt 8.961843268235665 7.654635510477591 10.363440408988255
Pt 7.264038096782888 9.719840364436616 10.174066078336093
Pt 8.995766772284052 9.692153472757326 6.734002406901462
