8
Energy = -31.95118637 eV
Pt 6.310491827119702 7.185350433869135 8.151822045710867
Pt 11.119064616582454 7.451945592927343 7.216972052306634
Pt 8.73783424997527 7.461807814330443 7.8282979529464525
Pt 10.487552455563627 8.36490708672362 9.402047338613738
Pt 10.436871063656316 9.211641673791684 11.69940006397074
Pt 9.067626319021162 10.344547707818466 9.989792812860486
Pt 7.2931322633716915 9.408326385492895 8.46225816625653
Pt 7.7835352738844135 11.807581374220922 8.485517636509185
