8
Energy = -31.87314176 eV
Pt 8.803396954286956 6.930622858223246 8.06935099278074
Pt 10.775385644958092 8.209721399320214 7.039358213389236
Pt 8.823581837704932 8.731726506617608 9.872940218577694
Pt 7.575849620525975 10.368527528730112 11.277475984470904
Pt 10.974307648839368 7.407735822118546 9.447881403729559
Pt 8.764523383725027 9.699675123974936 7.506658129336602
Pt 6.673151871212935 9.71601649722962 9.020016578972637
Pt 6.81911927836387 8.145290503402997 6.975634718360035
