8
Energy = -31.60839334 eV
Pt 8.28249185611569 9.77645101659327 8.731365996231185
Pt 7.921961654271608 7.320960916429016 9.873091257527793
Pt 9.61573785481522 9.747729801909433 6.422916935552342
Pt 8.977538834842553 5.304509503981526 8.64523548326054
Pt 7.0997419948320095 9.1889462202176 6.5872522758434595
Pt 5.841346757580944 8.67477690722969 8.860475125564891
Pt 9.554874524868207 7.640870631006588 7.764853814654589
Pt 7.114522949998382 6.753971429957973 7.523025538690059
