8
Energy = -31.65942097 eV
Pt 5.650105984948195 8.365215649882956 6.106537525963682
Pt 7.823656756826204 9.693710924337896 6.685539733692229
Pt 8.053167752025411 6.802139147340501 6.4979722947393395
Pt 5.733936725439452 5.8116427737314496 6.321341227959946
Pt 9.845053738083903 8.309691583189457 7.448312666455819
Pt 6.668267116604938 5.529091380217768 8.69328607271533
Pt 6.798638458033969 8.06335127979468 8.36556806165468
Pt 8.843419660796554 6.841403454263792 9.297688609577992
