9
Energy = -37.34331255 eV
Pt 6.172977420909662 9.40665016773956 10.225858346128602
Pt 10.863174538439262 10.469008188155312 10.474475393657627
Pt 8.702501524066033 9.12219562337749 10.339312178659794
Pt 9.95030582244515 10.13427732569901 8.111402466878717
Pt 7.367264027904383 9.557290159864023 7.974630211958654
Pt 10.792227141017168 8.104035023172212 9.352698878619751
Pt 7.364554142608442 7.332554218416574 9.165022706714415
Pt 9.387627678902726 6.704235149628888 7.743485265127346
Pt 8.996659227311964 8.76704566755135 6.2104060758596304
