9
Energy = -36.85218165 eV
Pt 8.812261343945874 10.43057172095072 6.389402286898803
Pt 10.241779371492752 8.944430426989424 7.71115354179845
Pt 12.149817769610047 8.085322903814008 9.207728382848238
Pt 9.815579922529315 7.081753739686167 9.489065621171124
Pt 8.99755136792935 9.539999876222328 9.805924649447228
Pt 10.7551212025566 8.657707251255903 11.334139197580646
Pt 7.5438575659124485 11.024284805250113 8.413479615723402
Pt 8.336962698506126 11.768410454333658 10.687211592136949
Pt 8.741313639397353 9.861763703377148 12.356139994274615
