9
Energy = -36.36227052 eV
Pt 7.3817008444121734 10.10224734967455 8.470709094081446
Pt 6.666548931325304 7.634451391315778 8.900137316036002
Pt 6.755455083260266 8.468884346720575 6.423634350383794
Pt 8.65849746717548 6.871756162661478 7.2237559200227
Pt 8.649021679679988 6.146694866055406 9.736487569910606
Pt 9.903997963580323 10.660173292214136 9.174033681383031
Pt 8.481252332649486 8.75083221194344 10.407512355828368
Pt 9.24158427084403 9.400315969747593 6.901923050964077
Pt 10.335494427073185 8.038196897078679 8.835359020654554
