9
Energy = -36.06689562 eV
Pt 11.32547283958728 9.37939356717215 10.024597953465813
Pt 9.07269934423899 8.170780813791849 9.345635477971712
Pt 10.511965666207576 9.279976172094434 7.469606006288304
Pt 12.900391171507206 9.327216432055625 8.108987050197383
Pt 7.355061780863108 9.96563241804643 10.853051711591577
Pt 6.668728866307493 8.782498927457983 8.70202396475269
Pt 8.60212835237091 10.594834901578308 8.53392963675416
Pt 9.566827008285152 8.893378571103597 11.839935897369726
Pt 9.653466524339745 11.271678733656524 10.789874366900245
