9
Energy = -36.20152185 eV
Pt 10.010007793246032 10.760444474037223 7.916873600938606
Pt 8.637322126685016 11.522380221540805 10.078507531166474
Pt 11.011639018610934 9.703960320829095 10.094032253136819
Pt 9.652628579878142 10.40405352505142 12.125008805511872
Pt 7.553609650022199 10.122604635307933 8.205651245870163
Pt 8.518072467545377 8.840620641398534 10.413204298203555
Pt 10.249789258838783 8.22819747802945 8.166517968336661
Pt 7.80455459856724 7.533021396866632 8.362019684550264
Pt 9.620845757671429 5.8701265194942325 7.81668829345847
