9
Energy = -36.59912982 eV
Pt 9.1007135 10.624798454721262 9.755141603467356
Pt 7.574608989382597 9.1007135 7.754978877576087
Pt 10.626818010617399 9.1007135 7.754978877576087
Pt 9.1007135 11.090134385068279 7.253106289415994
Pt 9.1007135 9.1007135 11.872387020455347
Pt 11.174893367868973 9.1007135 10.2537904478322
Pt 9.1007135 7.5766285452787345 9.755141603467356
Pt 7.026533632131025 9.1007135 10.2537904478322
Pt 9.1007135 7.111292614931721 7.253106289415994
