9
Energy = -36.77703384 eV
Pt 10.135809252512042 9.469438543123776 9.505998382684794
Pt 9.563029901857343 9.165898756625857 7.03642334575016
Pt 10.948774136233991 7.303311650198154 8.232672450163461
Pt 8.957536393493049 7.249408308858972 9.937561052414832
Pt 7.878364356188759 10.636743677852284 9.822595261256865
Pt 8.687811392925017 6.495829967032945 7.23732180638481
Pt 7.504349574223467 8.503998231134984 8.316469091126985
Pt 7.625427343186864 10.856941987169428 7.257218894459538
Pt 6.855125111452357 8.474656340076356 10.80996717783143
