9
Energy = -36.53258531 eV
Pt 8.22902317356819 8.667390308043192 10.018372353654069
Pt 7.145202021879009 10.943982804813102 10.027625745622302
Pt 8.473626716389441 13.070927762561206 10.00769495778371
Pt 9.652852214247213 10.783489143370213 10.021270302250324
Pt 10.788375341647367 8.415939854488034 10.019095561316533
Pt 13.281845246285213 8.398905235608504 10.014036439715248
Pt 12.163173895762851 10.597719099661726 10.018015312909187
Pt 11.146207862015252 12.851224762492336 10.025579352037896
Pt 9.28558139161992 6.436309028961843 10.014197883654262
