9
Energy = -36.75162629 eV
Pt 8.841594474383102 12.493975323771084 10.730694860754738
Pt 9.342984867801247 11.700728771997543 8.36984509335669
Pt 9.812362646017027 10.429701164090888 6.269595061151079
Pt 10.716249711298811 11.74039429842581 12.2863922095831
Pt 10.129241729705415 10.343849812414593 10.34240116093347
Pt 9.60159533912748 9.057527592706785 8.310330031072477
Pt 11.464894245469651 9.718335472991752 13.475016493545567
Pt 10.911105957647054 8.370968263593095 11.498649336250718
Pt 10.082454685736693 7.047002957194939 9.619559410538793
