44
Energy = -94.79398364 eV
Ag 6.536320062953803 12.162222824179956 13.368007238436558
Ag 6.406517581590728 12.130613317297168 10.56479213321189
Ag 8.684513965492783 10.793770945396991 14.716136541833063
Ag 8.588918394152627 13.654789669700808 14.557509869772051
Ag 8.509450072064125 10.798432014761916 11.885780362668331
Ag 9.352313503638573 12.374308554621502 16.947813116082138
Ag 8.292124082788938 13.830902727953829 11.799616692167623
Ag 8.286374377391667 10.713922363243316 9.058705748518504
Ag 8.226923469804552 13.635651451163213 8.982501824515671
Ag 10.775537374827682 9.503089826453825 13.241985313357272
Ag 10.685889577933047 12.372252039854619 13.066165036968963
Ag 10.421591754295543 15.280882233378803 13.091168648822848
Ag 10.553682606490106 9.47399239227403 10.418672316275634
Ag 11.372063395229887 10.980385095033428 15.612799969564886
Ag 11.218529999969382 13.96033730192457 15.434372564999201
Ag 10.225250716878794 15.262004037706962 10.251394872365164
Ag 10.399645724352064 12.347776030624559 10.237864233871196
Ag 12.864217297086137 8.256134601870354 11.713539049624295
Ag 10.242003211593522 9.297955630380283 7.630917416934417
Ag 11.975038442500924 12.633941942472687 17.86197450429975
Ag 10.130913443033766 12.149485276239577 7.4104860851687935
Ag 12.789653837491779 11.099403177578871 11.489792631306939
Ag 13.681493176735842 14.428635172623785 16.520663195460312
Ag 12.236543644474901 16.77998745163734 11.578140762731163
Ag 12.42393864050271 8.06343800833575 8.895438904277224
Ag 12.146369280157648 13.843772660636324 8.530582722194145
Ag 15.945589767090489 11.351720842980406 11.48967641601949
Ag 13.419394433478061 9.727585432731455 14.14311157593987
Ag 14.091975476618659 11.639797451304187 16.318583604007415
Ag 13.25564844636768 15.44241675618219 13.891362511528104
Ag 15.477806182080599 8.75512523339396 12.573503374936001
Ag 14.146709729013269 15.464381811007854 9.743855455831723
Ag 13.434931017184725 12.590008660805688 13.797038203249533
Ag 12.497604624771595 13.955283446673567 11.437846288754132
Ag 12.401862495473297 10.922742231343742 8.494202882991326
Ag 14.968019257722506 16.791711968606513 12.116970609665668
Ag 15.708566412777971 13.885238775793189 14.720887144329732
Ag 18.044283497943567 10.03042722896537 12.84437484828386
Ag 14.54747754394512 9.661136719488809 9.760369037022187
Ag 15.949477750889546 11.005660220054088 14.383215393506068
Ag 17.141654266706194 8.995193286619886 10.390713597891724
Ag 15.378210621760966 14.05984332457323 11.90765464712925
Ag 14.404538685812529 12.608616609989125 9.585544080249365
Ag 17.69548948102152 12.83504956737025 13.086972032921258
