15
Energy = -60.15329402 eV
Ge 7.7673004994901405 11.017992694777632 6.34668996544174
Ge 10.078599714689167 9.806005145891394 6.088265316231569
Ge 6.012262130689578 9.742547886778357 7.8223429438889625
Ge 8.171299296209364 8.382140008491021 7.2760226405451744
Ge 8.99675033196071 5.9034698037905144 7.647825441575069
Ge 10.024100978394502 11.884709749438448 7.81468899527047
Ge 11.028630497074701 6.896492248825043 8.849934963520944
Ge 10.300185566434212 9.332124346989188 8.64549572032359
Ge 7.441673161750274 11.867187318055816 8.907077085456313
Ge 9.609738976608213 11.187293974941205 10.37953579754772
Ge 7.690227181127892 9.31237697330431 9.751557919597788
Ge 11.197330900660292 6.358384369485414 11.29732476528728
Ge 8.738651973108391 6.284173316610164 10.18981409460447
Ge 9.847261425402701 8.557019307559871 11.530021166514096
Ge 7.440254857928943 7.8123503465912725 11.797670675723442
