15
Energy = -59.45822052 eV
Ge 9.288370539602802 10.463187714739018 8.159744546277949
Ge 8.40103282953552 10.0641941510078 10.554673834423635
Ge 13.389982918455104 9.18392525382319 11.371626334318021
Ge 9.059785336384735 12.708081022429527 9.460157162084707
Ge 10.809413293569339 9.203629476540968 11.982978491480996
Ge 12.32908854861979 10.464635800490482 13.778051223718625
Ge 8.74779080268999 7.804588301546738 11.856049731894869
Ge 12.27968793565179 13.163665674422099 13.098065429763151
Ge 13.875890612406991 13.700281166119224 10.923428405232695
Ge 7.817086007495447 12.29652399128822 11.717831249552775
Ge 13.755699767526927 11.302930769624004 9.62405122813122
Ge 14.262415518020545 11.44143377829733 12.323027462183992
Ge 11.527357436095444 12.972830539392746 10.347309871790625
Ge 10.239894417027052 11.756825111203982 12.303851185346394
Ge 11.309590620011441 10.422537267090288 9.717970584192368
