18
Energy = -72.18719241 eV
Ge 11.229424189831422 8.557729038161227 11.497252472199142
Ge 10.235081304332732 11.183471530212936 11.293414342586017
Ge 8.948683544645064 9.192845530943496 12.602258696641007
Ge 8.963619791417722 6.764359305155783 11.505550602961659
Ge 11.56959376633486 6.700165156374534 7.139902579376132
Ge 10.426301062395579 7.289071531043021 9.387518161288728
Ge 10.199739246299066 9.917503532107382 9.124691413536087
Ge 7.83710575469764 10.63982868377035 10.345358146982877
Ge 6.751557335672959 8.395616719719783 11.333641405883894
Ge 6.199942962337116 9.418720470619768 7.02099767859975
Ge 7.398920951167575 11.512865857728723 7.836058991777362
Ge 8.00079477127421 8.153631368326398 9.155308147748103
Ge 11.315836582594054 9.353109612838782 6.85728938121968
Ge 8.90108676369978 10.091466840136079 6.371915637535223
Ge 9.26953377800428 7.2106472596664934 6.472836596129609
Ge 7.51360568224898 8.214680777645949 4.847265083530274
Ge 5.145155452061543 7.649517991946569 5.6516638455072155
Ge 6.856033913764295 6.608652098506292 7.231739475266972
