13
Energy = -50.98030262 eV
Ge 9.767778731258147 9.744780620212298 12.05001458680829
Ge 12.146618928277922 10.350691163915165 12.024728310668905
Ge 9.246220693547825 12.745233601010614 9.080180189676572
Ge 7.822812286502884 11.044700987061667 10.29951758318156
Ge 7.391523291331631 9.140082344544973 12.018279753489683
Ge 8.23455650591298 8.111149032512015 9.79873352193385
Ge 6.574665759685152 9.609134062833006 8.549445910027755
Ge 8.762223620232911 10.567268785928741 7.743070646159117
Ge 11.29595736059506 11.420809321129507 9.825986527739301
Ge 12.957517176555351 9.946217311685889 8.550603170233725
Ge 11.70832512831358 8.476080793878852 10.272181934561184
Ge 10.76957309019561 9.003637020604511 7.726054564910577
Ge 10.283680282438041 6.801599335671003 9.02262191852743
