14
Energy = -50.48046453 eV
Ge 10.708372711676338 6.539907711754385 7.312301914713476
Ge 11.967123711500367 9.254432507952323 7.517699654666814
Ge 8.149172806444271 7.438124695736166 5.884217145099969
Ge 9.990995041117545 5.704981233884774 10.139404399186793
Ge 12.584217617235867 9.77397339942396 10.412925333063306
Ge 7.8175512928670665 10.398237029283113 6.390274973577518
Ge 10.124151745366367 11.087443196116427 9.029185801149136
Ge 6.161659030021527 6.18938170649838 7.742945396647138
Ge 10.696622757896563 8.008948511637241 11.99868299931634
Ge 7.208761858236248 6.822703895923494 10.488704328747547
Ge 4.828702382794053 10.394870398787003 5.7184987015168405
Ge 8.268896563652879 9.639242187647731 10.959307490372383
Ge 5.731294041182204 10.86412483983453 8.574297243170431
Ge 4.106724797538726 8.394557891708706 7.867462175142582
