12
Energy = -42.93358552 eV
Ge 12.901751682114062 8.427853809998702 9.73318499550598
Ge 8.323661362915075 8.584631073381308 12.114026022539658
Ge 12.949536559302617 12.582811550810835 10.643476177330237
Ge 10.027518228545524 8.623919104360635 8.592344841178468
Ge 7.019150191150399 11.256655031993045 11.808464853318307
Ge 11.168154075966829 10.620686747840363 6.521380687508282
Ge 13.494058548801071 10.09494188327007 12.212365607694878
Ge 8.88215138877875 11.378857259559336 8.326744962416464
Ge 9.7472439634342 12.873878881509413 10.806496335235575
Ge 13.697516856002165 10.928364718754313 8.221678631326961
Ge 10.431270321518792 10.62494081882263 12.81608988670822
Ge 7.792672269690899 10.356119585077904 14.522906265331915
