14
Energy = -55.36573068 eV
Ge 12.02357337337464 11.311471590018458 15.1215518925361
Ge 11.486740325012505 13.205917865531136 13.331328726621233
Ge 10.514734469755997 10.382674465795642 13.121575661621852
Ge 14.637730775296712 10.63865873413913 14.535242537881524
Ge 13.164538733742944 11.527252219035681 12.47758138663489
Ge 12.81460472904896 8.866940550273473 13.835611377408327
Ge 14.772962082525233 9.590510750052776 12.105658040838033
Ge 10.425720365531332 12.254149295781492 11.232294459135359
Ge 10.879845303530164 14.350778421785956 9.200945090673198
Ge 12.243023764842503 9.298109770118169 11.244035674792528
Ge 8.54583713491672 13.01179727056451 9.728445188454025
Ge 10.960511960810761 11.659581827396229 8.790518346216812
Ge 9.545018783712251 13.354423331896037 7.348165039749714
Ge 8.569156120150422 11.007213330604975 8.088289152710677
