15
Energy = -59.39228485 eV
Ge 10.384928523749634 5.913760743847795 12.486594817065809
Ge 12.521289478887928 7.412028241274872 12.843852050874643
Ge 10.513841257178099 12.173849994716315 9.82420303461608
Ge 10.225436804619644 8.474380696443998 12.510134063191874
Ge 11.670610003595161 7.083998357248603 10.424752265247317
Ge 8.953596186420292 6.8319742227588005 10.639206839692527
Ge 11.254693638117203 10.413397303509518 7.680554241793822
Ge 10.401587408912865 9.354887496112521 9.8786565504129
Ge 9.54503968563311 12.624319313074974 7.2414238723681414
Ge 9.380518507978843 10.938009082672082 11.942378567916444
Ge 7.844513587171153 10.714435142306462 9.931252411065453
Ge 9.266169084829485 10.425959352573683 5.87405189599462
Ge 8.742075606208187 8.985475299023385 7.924903953778491
Ge 8.077133502171627 13.228887684348006 9.288422017956709
Ge 7.150847845279068 11.394479888546833 7.464596758906401
