18
Energy = -72.74354762 eV
Ge 13.82221891445978 8.07255166742699 11.262850944456924
Ge 12.649534801924569 8.133114715803044 8.842655206400572
Ge 12.170291754203772 10.701080810199752 8.089003600031715
Ge 14.365899121625331 10.138941557694169 9.526983199541325
Ge 14.22246838050709 10.649372587876094 12.181147043561836
Ge 11.177164963061962 7.505068048600572 11.145927456837995
Ge 10.534779647151632 9.601278333786029 9.831155968993759
Ge 11.417883698282946 14.014238492859759 10.238375155756973
Ge 12.367688268939263 11.590904378159252 10.567160219340561
Ge 13.163829065997238 13.720095849143988 12.21963205666708
Ge 11.838744091506939 9.626120703341583 12.455388472590236
Ge 10.644348425362477 15.300019886744387 12.419305360298809
Ge 10.03415410228003 11.037414801482285 13.909970896965623
Ge 9.718870981052348 11.709033815734866 11.36568050654684
Ge 8.780679459656762 14.194424736508042 10.925118089957165
Ge 10.218914856973095 15.005632994945444 14.999354405767603
Ge 11.536510712779293 13.060739106550306 14.115320831378122
Ge 8.849754044164808 13.449089271428196 13.439569168615511
