12
Energy = -47.71464137 eV
Ge 11.198831228607633 11.436506615901552 11.667900869835352
Ge 9.305958420203272 12.06428231663147 9.882491294182543
Ge 11.827168160099676 10.384925429905898 9.43916050441595
Ge 9.616109273982365 9.599262068317183 11.041229561496214
Ge 7.173678151899339 9.96550857462251 9.697920428630217
Ge 8.072340857910659 7.557075250604785 10.754144872555372
Ge 7.296724851639613 9.825699461409295 6.998329258184807
Ge 10.710522209812916 7.904935599890833 9.304781524890219
Ge 9.553426222847335 10.165406412278754 8.138032428922775
Ge 7.126623628720046 7.543429040601303 8.145753173919832
Ge 9.13586041080181 6.02189336636593 8.665763473096698
Ge 9.428254956768471 7.972249938758709 6.722910371916802
