15
Energy = -59.88174951 eV
Ge 12.754888018566055 11.241136014868285 8.68885921318937
Ge 10.200039300259016 10.924444315255036 8.021668098710787
Ge 11.790197342920987 8.865732963636791 8.598342398318858
Ge 10.652079186922952 10.199839456289338 10.465321933162672
Ge 10.720904755171038 12.862158464566747 9.494038694384754
Ge 13.729821294019185 11.66301151169185 11.111603545058761
Ge 10.89963248736093 14.391221048946731 12.363718940090722
Ge 11.427643615843566 11.750315608456809 12.395679480727987
Ge 13.482601487872483 13.893121614039257 12.325002134700961
Ge 12.340563429225966 14.828756745948898 14.62731442976122
Ge 13.944019747092824 11.317448301535338 13.730144439794529
Ge 14.787811423241264 13.6535586835665 14.517592980066027
Ge 10.383639416665368 12.892024098726843 14.54761197535927
Ge 11.62787740764318 10.464349675869645 14.644414247524471
Ge 12.713247305621481 12.50784771502796 15.923653707575822
