17
Energy = -67.33116877 eV
Ge 13.73517456042235 11.014482842749578 13.503042275637815
Ge 11.373499544105428 11.390980659948914 14.694937443117821
Ge 11.581942868877453 9.943873638320701 12.406629610488721
Ge 9.768521244977942 13.53490440232933 14.224534207928599
Ge 12.50708307175609 13.767527460035206 13.808117501068667
Ge 9.25439404358764 11.236572445619206 12.893013957148655
Ge 13.662189177707665 8.844585090044564 10.970814473491854
Ge 8.523687817532167 13.688001299596225 11.841513893216646
Ge 10.588428559447625 15.305618726727708 12.348248429303352
Ge 13.484407441434387 11.694802025776786 11.051150243707648
Ge 10.77679273004283 12.221784679066626 10.839527658965201
Ge 10.269433349855614 14.506843490273832 9.824565514055097
Ge 12.684584528989847 14.17936581418648 11.014715371872997
Ge 12.723269500948293 7.919317261580458 8.702118823434251
Ge 11.086291776731201 7.884439628716044 10.822503249627005
Ge 13.984228127415022 10.312728818764361 8.751421420622599
Ge 11.411834506918296 10.085858561876506 9.351018234573198
