11
Energy = -42.23280555 eV
Ge 12.845157100054548 9.617144281341416 7.845155813357821
Ge 8.114673521748802 8.073844082152458 11.689947388900016
Ge 9.360035442050329 10.249184111916325 12.30102278641746
Ge 10.200046553692104 9.998812524257225 7.721010961558698
Ge 7.427202799697559 10.120709155711022 10.283451639066596
Ge 11.628754787622894 11.582290223051286 11.600379042595522
Ge 8.083210470366621 12.292525694632031 11.387593740341819
Ge 9.886813745216134 11.644768405292583 9.667895552324552
Ge 11.492420755662387 9.32619372753716 10.138088800398426
Ge 9.280531771768427 8.24886191989001 9.40916162010492
Ge 13.629088718654325 10.787369971380633 9.930475859802193
