16
Energy = -58.20691607 eV
Ge 9.527362713569596 15.13422328508477 10.92652865510935
Ge 9.81550809749729 14.225498847415379 13.779320558868982
Ge 12.605556877358975 13.125670183092746 9.122252792116715
Ge 13.715592382211963 13.860350912421337 11.884314137949735
Ge 15.901662313666904 12.358431913750502 10.400359899955507
Ge 7.038263127796148 14.727507535561633 12.556755834402479
Ge 9.586020216152411 12.744410574298438 9.144235452820517
Ge 17.225686075303038 10.618472081923498 12.495260882782325
Ge 12.727026664330058 11.676481446634783 13.687514194977757
Ge 15.324027295715767 8.3160767163994 12.961509484720125
Ge 6.50298528181238 11.712815322512393 12.433729465187886
Ge 13.915655518417587 10.376396494647976 9.291891698141582
Ge 9.217284796054996 11.231698473383647 13.796106133131133
Ge 8.822257635919819 10.468822477699124 10.92588170746058
Ge 15.39990414089446 10.66424407385613 14.877509411630541
Ge 12.646778854544896 9.324920694253615 11.794805994327062
