18
Energy = -65.00428339 eV
Ge 11.35898661040555 16.332041374849204 8.409678630441618
Ge 9.74477830564442 16.97584550120014 10.870892981693501
Ge 12.71047778891569 17.533106679364234 10.812840994809575
Ge 13.227666793696368 13.771277716884653 9.154535809815254
Ge 8.863021187348814 13.007561733901168 10.919028315923054
Ge 10.400272227936439 14.676100653400745 12.832490316967741
Ge 13.298401004179716 14.676749000003369 12.025141002986846
Ge 10.55710635549845 12.686731316900353 8.429751940569302
Ge 14.249754796159612 10.50177979077679 9.297418456655182
Ge 14.462908252884912 9.167326276211027 11.977721983443034
Ge 11.405570016263885 9.668896565476752 8.988244038833928
Ge 12.435021165145995 6.882400693234283 12.233628449621364
Ge 12.87391372563375 11.321845356914558 13.368582999622518
Ge 12.720829548069329 6.919984234999819 15.289711234787484
Ge 9.568230663489945 7.790372889674742 12.655590478425845
Ge 10.448536065358567 10.520725556942407 11.744472253279278
Ge 12.245686778964153 9.84208330738041 15.970598990704008
Ge 9.881310965937752 8.020771080870963 15.659244966340859
