15
Energy = -59.41961291 eV
Ge 10.154319643186929 11.530064006060542 7.334508908272022
Ge 12.60057736055654 12.68543628412675 8.155899350576377
Ge 10.405623688584225 14.080362394099044 8.303580620153445
Ge 9.898851665333051 10.07624402709468 9.431158089842146
Ge 12.408988830314417 10.104243747157552 8.13762267678512
Ge 13.43385178351905 11.621214333526842 10.35299108981164
Ge 11.708929432587382 13.731187948366044 10.64516397259306
Ge 8.732904944715198 8.513998404709428 11.093855967436783
Ge 10.500384379717659 7.34708741444794 12.401467502898027
Ge 9.029683719474008 12.538935179826781 9.888648503879812
Ge 12.12719843743535 9.290423788930687 10.719054173337488
Ge 10.837743182480397 11.45626260445618 11.460534128927561
Ge 7.665502472761702 8.358903877980193 13.379618017449776
Ge 9.968614362337476 8.038617875870239 14.81049516032262
Ge 9.775427323507955 9.875619339858709 13.1340030642256
