18
Energy = -72.26380844 eV
Ge 5.706067672504161 9.17643823586321 7.04583490117678
Ge 8.039642414844753 8.30580644986876 11.694482242927053
Ge 6.33031689495866 11.151075697819651 8.825323306199346
Ge 7.690294720762568 6.100881181954543 9.921536079628813
Ge 7.184078210353046 11.393255630123562 6.344138943366191
Ge 10.08202661428915 6.592270902619118 11.225525433173972
Ge 7.510694239413455 8.853134458610107 9.161610333543502
Ge 7.738580975957154 9.048837749631257 5.340262040385629
Ge 8.016082482960297 10.998765948905467 11.158447983332612
Ge 10.345758131793893 11.928794382503469 10.45814260221443
Ge 10.317935886721733 9.425433023568687 10.657882380922754
Ge 9.07417585337144 11.186634128329372 8.380548781617541
Ge 9.728428945177361 8.535945560206855 7.6481438981437835
Ge 9.863627449588398 10.497206159360815 5.978567609955781
Ge 11.763676152488241 7.891289131613796 9.138885969224159
Ge 7.592528280703284 7.105740543583083 7.241732954858663
Ge 9.998616326990518 5.616700036726392 8.696520247847033
Ge 12.083900149895552 5.524950404923246 10.197521818503978
