15
Energy = -59.66175044 eV
Ge 10.727503810300991 14.135924286566137 12.47459449364152
Ge 11.16751638301472 10.23330754727259 11.666471472887705
Ge 14.851127585829206 13.177481296544636 11.306815973489835
Ge 10.271957790709164 12.564840436715238 10.475156525896306
Ge 14.363840636671785 12.521291275041737 14.061464956160656
Ge 14.14775935155968 9.760967969804755 14.270841384985916
Ge 10.190829211694684 15.361104529839158 10.076823948719523
Ge 11.911164285920648 11.288248253563117 13.92683647103404
Ge 13.292416147943097 8.388946161329253 12.072196407218696
Ge 11.84168300425804 13.689385976219569 14.80561392285612
Ge 12.477834852369812 13.904999190192038 10.461843699999438
Ge 13.654063433295889 10.992941065644482 11.885577235481021
Ge 13.474192390553158 14.86212435317031 12.970515678866752
Ge 11.925913078508513 16.425197534204358 11.494774771135534
Ge 11.666210709218268 8.677277373995633 14.043740383167904
