18
Energy = -71.29866777 eV
Ge 11.383130586727281 14.483920565370424 14.982063414511158
Ge 13.19176846554542 9.765288326771618 13.654913448759293
Ge 9.545665415076428 13.125991819522717 13.79220215164467
Ge 10.564773962226438 16.70100364087888 14.180276463548669
Ge 12.32982181502711 13.835622114604128 12.777890995411141
Ge 11.362902024510763 11.306323138155916 13.149231349109334
Ge 13.81739050302568 11.894118863267504 12.062203961456381
Ge 11.983508452249845 11.2465647853617 10.26535735251178
Ge 11.728531168809434 8.898942947909825 11.569147303328874
Ge 10.278101961000466 15.052462084722823 12.249423765679419
Ge 9.964834966685808 11.840667175154794 8.781687557999
Ge 13.380083891182469 9.071717038378939 9.462333538765167
Ge 9.451063692991022 7.86952359516143 10.877241424834777
Ge 11.309101973336709 7.60829631761537 8.92179639265981
Ge 9.40847655705588 10.563334996937652 11.100807819160071
Ge 11.703409050162112 10.009649358784353 7.717471453091517
Ge 10.22633114246733 8.166752490439382 6.646562002785068
Ge 9.096638245537479 9.346031104473443 8.711471249245271
