17
Energy = -67.56948625 eV
Ge 9.527128584811855 11.901588195997233 7.779377458241096
Ge 11.092468438691697 10.92985733762988 9.666291138568658
Ge 8.603078403386075 9.81955013020723 9.21631980871324
Ge 8.809556891508157 13.070410713665225 9.855953474633717
Ge 11.22747187595244 12.462089279646205 11.76841533697285
Ge 12.084334855877449 8.584572430236983 9.085075582559565
Ge 6.753430861102478 11.70922074596134 8.762416810552544
Ge 8.63174374963291 12.789338031352226 12.47820851074394
Ge 9.573280362287251 10.201066471062536 11.79811712757979
Ge 6.5201743899600295 13.429523172755548 10.881677799390921
Ge 13.841348123982147 10.42192026573862 12.685442198463695
Ge 14.691608673243788 7.9651521151199445 9.407207435314225
Ge 6.985910018323506 10.837348434697228 11.391778521256958
Ge 14.000831925585468 10.33010738156569 10.134002542376097
Ge 11.466218441707648 10.594973090737247 13.585586969067208
Ge 12.77365043053011 8.251254954227456 11.526628172322614
Ge 15.36199051829592 8.403701174442539 11.821435341712595
