15
Energy = -59.80130086 eV
Ge 10.208590623508018 12.392847116044612 8.882359601559687
Ge 12.63483481424784 12.567389020963557 7.717833381830369
Ge 11.509577577427688 10.202912076453247 8.702129393723341
Ge 10.832174834176275 14.444191978461083 7.657820418450604
Ge 13.252424874852911 11.867788349941424 10.214941899062273
Ge 11.330856938971257 10.2092923526384 11.373505355820454
Ge 12.197590533310613 14.275639344390077 9.934249035073739
Ge 10.824389468245053 12.81911349994897 11.82116087278408
Ge 12.78813685795299 9.005813409917826 13.264859815858093
Ge 10.901256333095201 12.61636963402587 14.465498121372287
Ge 10.104874874677718 8.456227139284165 12.803706151365276
Ge 13.098013396875853 11.796614196517595 12.844578836799855
Ge 9.140989839934736 11.059712020208968 12.832475833794756
Ge 10.676178365723398 9.941064420395039 14.804253590732753
Ge 13.039145858617019 10.88406063242654 15.219662883389494
