18
Energy = -64.82087039 eV
Ge 11.44981357690225 10.15616314970951 16.287042496644784
Ge 13.613240049648658 10.892775488502364 14.340774839078932
Ge 10.412364884201322 12.948702290643483 16.77855817770132
Ge 13.059104798472953 8.45188916714786 12.61784585654398
Ge 8.890355918005438 11.091061502563504 14.965089466752618
Ge 11.62481070444319 14.650119271437646 14.457280794480468
Ge 12.80230121379827 9.77967450586209 9.894687642984426
Ge 12.460017678776913 12.740978805148526 12.185966716586277
Ge 10.326369668102846 8.870287185458997 11.35525857845415
Ge 11.722174589676326 17.55491572557563 12.833762369980272
Ge 9.636880239523487 11.739148844660933 12.092222944645538
Ge 12.930036487694446 7.301425384598245 8.146286999780871
Ge 9.18982897633336 15.958898143412133 13.264257683164983
Ge 10.928185140018085 15.61671299151127 10.84128057569397
Ge 13.312610214486195 9.119179096978264 5.705202068508149
Ge 10.018248676978988 7.8817117603894955 7.421502795540649
Ge 10.707507348850049 10.608547605576819 6.258905196407984
Ge 10.699871357376084 8.22012137333231 4.448406054885934
