18
Energy = -70.29141386 eV
Ge 9.799669906306361 11.509630217050127 8.113062939829515
Ge 8.814776817030346 9.148139123183029 7.784713276365068
Ge 8.70304310567342 9.836743562785681 10.215127615695899
Ge 7.637830816523476 14.13624696506301 11.354943186368306
Ge 12.315229946411078 11.222778932594933 7.583456414187957
Ge 8.836887324056535 15.29937462743264 13.299944132822388
Ge 11.276193843476563 8.990066364097055 8.462087280548543
Ge 9.252872869343289 12.392362409513378 10.601052332459147
Ge 9.072685640186133 12.740427686289468 13.279658601999587
Ge 10.467346874288783 14.59565121480459 11.495836350035665
Ge 11.610617246678329 12.36954578055983 12.401442073120435
Ge 12.231462913374195 11.414426088641934 10.088779387913236
Ge 10.782194911439989 9.224270547994745 11.538346843337346
Ge 11.334633014132843 10.109619528940202 13.823337575429647
Ge 13.560221883951737 9.19167206666058 10.15971816503424
Ge 11.684471303856826 7.061122689299445 10.488387033614812
Ge 13.047079090407767 8.43954232755453 12.760129383714506
Ge 14.2355197167601 6.935728085695917 11.18460075503682
