13
Energy = -50.95387646 eV
Ge 10.945619329652168 11.318955157219982 6.830939189225721
Ge 8.739726755313702 7.610241620791804 8.119981544117726
Ge 10.33151866359569 12.4948728885695 9.07796797665902
Ge 11.081455263060061 8.685865492628896 7.35099076777923
Ge 12.096257916739406 10.500001679002738 9.164172403195067
Ge 8.888178012703492 10.362547508747987 8.114163532483197
Ge 10.841296925195861 7.915384454334408 9.840070256253718
Ge 7.833423495289648 11.597608373901625 10.184780881489083
Ge 6.9649014267250084 6.687180862773964 9.631386099794774
Ge 9.939402568042247 10.469426524490208 11.011177667753875
Ge 6.696807047636385 9.269672807416047 9.583564806464668
Ge 10.4471709397575 8.36531251787342 12.344570841108466
Ge 8.198192189737863 7.89538207467927 11.394827411344789
