19
Energy = -75.32114603 eV
Ge 14.581152717815232 12.798012604301983 13.410267896613922
Ge 14.08759459486458 10.31119578011882 12.97000730972277
Ge 12.179896641889487 12.23115791066595 14.178468052636969
Ge 13.027067053898177 12.645067399724274 11.352878154096071
Ge 12.922865969376966 10.101975467445781 10.660169778176831
Ge 9.737885533339284 11.718701249407317 14.06904242271877
Ge 10.674066573302534 13.424698854829929 12.340856679653367
Ge 11.418611837793835 9.752150102029459 12.859486335676984
Ge 10.620174033188205 12.586245235658813 8.345198729153926
Ge 11.694113800494055 8.902044842952469 8.735095075275694
Ge 12.90624720258109 13.580981007159986 8.89136163919542
Ge 12.047406284802024 7.43032395704017 10.946465531158763
Ge 8.911670089824613 12.708191183579254 10.677790074860496
Ge 8.761031892783897 9.792866647231765 12.158560670054763
Ge 9.522906440164373 8.02116458005578 10.087038157758322
Ge 10.385029921906884 10.610669735884608 10.279225344809298
Ge 10.097760912681876 7.470188289247706 12.678279281720334
Ge 8.756139858890947 14.391618345801096 8.702065385952741
Ge 10.92919747786175 14.785809546576411 9.970939461927273
