18
Energy = -71.21300226 eV
Ge 11.433134638007656 17.126776676418007 10.945550566648027
Ge 11.959695903406585 16.279895974387756 13.35901874192464
Ge 13.682567185442016 15.788901990780323 11.126295348249458
Ge 11.377665122412168 14.720104997361059 9.848355397056883
Ge 9.753545547615278 15.261616579742391 12.149815687284987
Ge 14.222640665459368 15.176857280034277 13.589109769681377
Ge 13.33758857951562 13.214021660308171 10.588470928766988
Ge 13.042854875238064 12.991547630746776 13.155411252799903
Ge 10.839337329530505 12.920738891445824 11.735068518912732
Ge 10.890670135282226 14.043728632340647 14.234937576385223
Ge 15.487577438800074 10.15378924393988 11.594364151709959
Ge 13.321758944556093 10.469755527284606 10.312746910863002
Ge 13.226689767992367 10.38618433298438 13.03029896391008
Ge 14.901764005273224 8.308050290099816 13.168477742742494
Ge 10.939642290314438 10.316710072499486 11.375731729516971
Ge 10.62528679627576 9.687526297297616 13.887874108393504
Ge 12.498778783377741 7.7005949986011855 13.363866341097832
Ge 10.440123688671868 7.305746694498565 14.520235164767419
