17
Energy = -61.06028468 eV
Ge 17.418045048467192 10.1798200375709 12.277835227316368
Ge 15.17732480728995 9.508806284210454 14.208143441120779
Ge 15.385974427477787 12.298399888267046 13.047501346792394
Ge 15.544050875969043 11.300838251991244 10.17743485856599
Ge 13.1315048832015 9.481853683311108 9.966191387536009
Ge 13.337264967519932 7.881813713471599 12.478832972540829
Ge 11.148110859995723 8.28434002593078 14.571382832615578
Ge 11.59096382429588 13.125840518128488 13.27575713173317
Ge 8.910349086511173 15.868931827428085 10.553771394006043
Ge 11.652171764507147 12.070726332762307 10.436375195162976
Ge 10.368161107268376 11.128084742774382 15.220336591491241
Ge 8.62067289051299 9.443197583608738 13.446222627932592
Ge 8.629055199790407 13.544079606277293 12.494863370398875
Ge 9.997408221060011 14.893259199747549 7.888512085817793
Ge 7.029288632774205 15.209072764224294 8.260285214728876
Ge 8.796564881194405 11.145532756068967 10.642565570663015
Ge 8.189218948315004 12.461426957979105 7.841120447778844
