16
Energy = -64.24341018 eV
Ge 8.389949984386623 11.819182862814653 8.035113142200284
Ge 9.994250776469867 10.383040354014549 10.029792848277092
Ge 10.284225679210579 10.315571305083516 7.378820917394144
Ge 7.1107529009072605 11.065122497591567 10.251913072949236
Ge 8.790888311887404 7.925528118154 9.548997911260992
Ge 7.483548079781129 9.42293362682708 7.5696445292390955
Ge 8.29435963229652 9.279512566144646 11.721127395545782
Ge 11.423121751227507 8.271527373180446 8.998257583776105
Ge 11.74650308287449 8.538712226948872 6.411820366383317
Ge 6.244182982694814 8.530660911209749 9.734172149282802
Ge 6.9348976916875005 5.848437466892628 9.494813180490272
Ge 9.352667303255629 7.621839393252077 6.6764385349860556
Ge 9.588420490355736 5.698949024464185 8.618417998806155
Ge 6.981332409647282 7.922695432023052 5.518658188339824
Ge 5.497794437291262 7.152406712439334 7.560567940629258
Ge 7.551456637614745 5.6303611613415745 6.885835595569265
