18
Energy = -71.85973837 eV
Ge 15.023975218412161 12.801378564626454 9.847119951745748
Ge 15.632827515965033 11.20035197968606 11.74265561416419
Ge 14.198328284033728 13.30641425041294 12.402078648589269
Ge 13.038911403253701 14.386344838952882 10.325996748851885
Ge 12.113121173044576 12.269025428120987 8.94845393683964
Ge 13.45925112593732 10.42832193779301 10.26562944382062
Ge 11.684255814110884 12.250533473624282 11.740370803642204
Ge 13.385939657003155 10.426137732452926 13.019110529877977
Ge 12.67032478015156 8.316424628642833 11.445720340082442
Ge 9.512534716430094 13.440040514213411 13.047731259901429
Ge 10.94386296837032 11.495947425545232 14.224130620417649
Ge 9.882584458427731 10.99564388561274 10.058428181754765
Ge 9.759801132347839 13.737737148172252 10.416334166849234
Ge 10.47025524303031 8.558854612117035 10.043286380606942
Ge 10.426553468984537 9.608478237643288 12.446163929277903
Ge 8.281165892378688 11.06949346473381 13.630677262081594
Ge 7.773694738886171 12.20043246218012 11.243969245518207
Ge 7.9185116548975545 9.545562293329004 11.46795825783306
