14
Energy = -55.17252725 eV
Ge 11.262265459431685 9.724111776259427 14.976426206966355
Ge 11.986641864672817 12.265345778630882 10.30093173090234
Ge 11.80910461422146 9.924490097236381 9.100794487933628
Ge 9.438266980233575 9.300994108592294 13.225653449053118
Ge 11.887312045126556 7.8836798973097775 13.120623903350067
Ge 11.316683538791969 12.219964950363897 7.630700918393033
Ge 12.048355047514667 10.49670699809219 12.6654655057963
Ge 10.553956771750206 9.627828907479667 6.9052074600117574
Ge 9.55718496770478 13.138436919146036 9.572835536998285
Ge 9.746954241963714 10.951424763510493 11.10558582512721
Ge 10.675213333079984 8.369502874932685 11.008714271180644
Ge 8.780403031351467 11.472399636398189 7.553557133870787
Ge 9.01838469964009 9.058787581559535 9.00001107641166
Ge 7.546440715526208 11.157698444581852 9.829546379875561
