12
Energy = -45.57973769 eV
Ge 11.325827037925915 12.32259645312666 9.018652522117758
Ge 9.107016686234248 9.480628214420078 12.964034956283022
Ge 12.629112540458673 12.62579363420062 13.107230763714243
Ge 13.317277819784794 12.478094352787213 10.66682127615286
Ge 13.847741660287577 13.547933067692616 8.456089569420595
Ge 11.468075586742135 14.410364464103239 7.5909920270713505
Ge 12.170898260310686 14.85847323259485 10.037462845975117
Ge 11.440261946309654 7.979349134729082 12.55241277113378
Ge 9.456545598123606 7.1778794313548735 13.859658845528395
Ge 10.67334395620861 13.26770045877624 11.382501112559519
Ge 11.40349373316872 10.42280801006269 12.931976007083424
Ge 10.838799080947695 9.104094473346056 15.15771371189952
