10
Energy = -35.68206961 eV
Ge 9.031701599522668 9.46945685141435 7.3547456328951455
Ge 8.634993332413897 10.852819166012937 9.989727342805503
Ge 8.963760325700278 6.778462303812518 8.7973437008131
Ge 10.705616353111314 9.019191323829562 11.28448158612726
Ge 12.520394049473618 11.422388911566976 11.872929574582137
Ge 5.996878497035786 8.962759197735831 7.246063525977662
Ge 12.807825710414265 9.963940413049057 9.27216404510184
Ge 6.418197969223356 5.966960397252828 7.29082640494217
Ge 11.151436357084792 12.527513769475535 9.410335569215482
Ge 6.181378052199344 7.4404317602270025 9.889501798036187
