16
Energy = -61.92488102 eV
Ge 14.035421379592266 8.841713193560667 10.240279044019852
Ge 11.538067599507492 9.448230013511944 9.352141427562058
Ge 12.410357085227028 9.30633136293942 12.148390110595505
Ge 13.691991240533534 11.140967073090769 9.0334737545402
Ge 14.416972997322265 11.123895970750297 11.715127085109621
Ge 10.140657910324393 7.933064886199123 11.224407574587207
Ge 10.697292972524 8.23923762567996 13.837403376829174
Ge 12.13727813658213 12.435572728948161 10.452343585491755
Ge 12.04265119879626 11.834920263918882 12.969958890973412
Ge 10.078190097212072 10.772305978043239 11.38256686386507
Ge 11.004791804528084 14.680998116650107 10.403384924167337
Ge 8.41687213443696 9.125094337821606 12.664563895331508
Ge 9.810454779397979 10.734561321893375 14.188234014191575
Ge 8.751031157363682 14.091876187171348 7.887255558067599
Ge 9.502723670888019 12.617926846405389 9.635698814003417
Ge 8.589999815908207 15.116473219402785 10.281882599376997
