14
Energy = -56.23337728 eV
Ge 12.125099862563664 7.934288234567555 9.82472328330063
Ge 13.341283090072034 9.531171496486467 11.73784765579089
Ge 11.293609486125018 7.970459513154687 12.288690590094388
Ge 9.478939489676184 7.711018511628314 10.405048023294125
Ge 11.982908720953224 10.92740705966975 10.048122006183428
Ge 10.294610317385228 9.600816558013106 8.585587222492437
Ge 9.006552805294572 9.053283901456378 12.832887763532367
Ge 11.168597689625189 10.77060264689775 12.727419764893796
Ge 10.287020365614364 13.042397834452471 8.762173768619201
Ge 12.600852620662007 13.435295387822366 9.71877291463302
Ge 8.341268606847324 11.366400055398765 8.39947439650704
Ge 9.184088000080202 10.58578602200441 10.810468578966214
Ge 8.368604734956332 13.183059663286691 10.55704673986437
Ge 10.740678766923159 13.167116393346006 11.470519773516038
