11
Energy = -43.1009016 eV
Ge 12.673752034210699 13.131803678201722 8.488520110448555
Ge 10.46297687269613 14.282888742574531 9.364768421673011
Ge 10.637790970807844 11.733122223443836 8.960359122059609
Ge 12.105172688862678 13.003752121731683 11.087451883372095
Ge 11.218708815645355 10.579848784084133 11.389316870793015
Ge 9.348749872598923 12.889153455314483 11.08546188150652
Ge 11.4065539753778 8.05645149988296 10.60444850395077
Ge 11.539964750111697 8.990222684246017 13.270286961747322
Ge 9.527449227763457 9.39461987748156 9.400581657969964
Ge 10.175930137649717 6.865627914554212 12.442476543224592
Ge 9.092529154878507 9.085736947682827 11.954238946229697
