19
Energy = -76.43868486 eV
Ge 11.482946454368722 12.373544025783112 6.6165887825133005
Ge 12.25935692459472 10.175694501388545 7.747326471606541
Ge 12.906913060613878 12.761743995417037 8.753364492724074
Ge 9.467864497718601 11.16658263629207 7.566406529119619
Ge 13.01656572613121 10.708745434783273 10.403330827739927
Ge 11.694742163750766 8.612910407497722 11.951499759678379
Ge 10.539052058016164 9.51808272172679 9.636503006798794
Ge 10.317122512789775 13.752806660907847 8.639333955329908
Ge 11.58935837721051 13.237615044346253 10.984494483410014
Ge 11.70588230832199 11.275768181037153 12.869706844657404
Ge 10.53315355684726 6.775263211083158 10.110799441477099
Ge 9.346429710420812 9.91419292504025 12.303335317779005
Ge 9.075231884223308 11.884425670178482 10.113001345984136
Ge 9.401929575556247 12.541213331225789 12.607808810272012
Ge 8.866138380554665 7.912789167955778 8.358207501452295
Ge 7.889085106292304 6.672789980907042 10.607412530557024
Ge 9.494924891213545 7.11812321283205 12.634030044829148
Ge 7.656651707876661 9.487398928058452 10.047013280413962
Ge 7.178565680466246 8.553622920536046 12.436137442515355
