14
Energy = -55.28071616 eV
Ge 11.357510693130747 10.432092401064947 9.836479750182555
Ge 11.546426841496146 7.880798563161503 8.748333376037047
Ge 12.329631693923162 9.975855531820022 7.3817941833894976
Ge 10.583227394498412 8.369968690838075 11.165631235641692
Ge 9.864269831895033 9.807118181472427 7.6357495861208635
Ge 9.250249121832375 6.478180274679581 9.61104718276881
Ge 8.741076295102742 10.814814679032246 10.063085517646325
Ge 7.64634617674141 8.54778751359161 10.542062404308313
Ge 6.745336415400711 6.4660972029767825 8.98524747432592
Ge 8.775866122273449 7.319171269976801 7.1323544019060465
Ge 6.816421959962552 10.21234590063964 8.492772063540155
Ge 5.164913456586556 8.630852248438348 9.736299873953561
Ge 6.003560208619615 8.052462323697032 7.10712279737139
Ge 7.804583774263616 9.618344771182668 6.069404756810086
