10
Energy = -35.88853013 eV
Ge 7.058222505332209 8.755632168430434 8.399619510219614
Ge 6.956657847934314 6.3601801103928555 9.098192083012862
Ge 9.272032784265559 9.216836246379536 11.099365713885826
Ge 7.256381820162765 10.510836275764003 10.16202526133465
Ge 9.098699925470035 6.7500466734405 10.473016625792667
Ge 9.651924717083157 10.91760332634175 9.333924644559826
Ge 9.304405412228421 6.066746815724847 8.098257944740539
Ge 9.895545484252139 10.213706798942745 6.893120968817667
Ge 9.71492920730343 7.815879923106074 6.287445326323217
Ge 7.641826788867629 9.31439136031996 6.0368200527237255
