18
Energy = -70.27809107 eV
Ge 11.262020208388561 12.244027319848941 15.77152151059316
Ge 12.129860695617731 9.700344773896838 15.529688858904514
Ge 13.164471077701494 11.398744258116402 17.091365305965518
Ge 12.402581721198606 14.359314765472531 14.791410859653421
Ge 13.635755883948676 16.875247237979195 12.808187452375611
Ge 9.793608510636064 10.414177724473099 14.64874266153405
Ge 11.416455813893768 15.447745533248742 12.647199291886654
Ge 14.45648371692199 17.772464315186507 10.550477656880986
Ge 12.575121791909556 12.944461035346137 12.45800489910099
Ge 12.863274360002597 15.878176248310197 10.217052509267594
Ge 14.57318499285217 14.511931513135478 13.34874450781183
Ge 15.422294112619937 15.35606800020371 11.02679288762186
Ge 11.13145322437032 14.02503744334195 10.445194154057933
Ge 13.543256314006937 8.971794830082805 13.518618275968205
Ge 13.834613078298512 13.333890090707333 10.284692056398947
Ge 12.707035172139232 9.273177493544871 11.051109617262842
Ge 11.5451207104047 10.665208224023612 12.845668199515657
Ge 14.499667527257925 7.699625858259538 11.737461575133072
