10
Energy = -35.38498452 eV
Ge 10.191322319131814 8.121385281350562 6.229596262347556
Ge 5.645935516519767 7.314188922076226 7.116071068129587
Ge 7.5378314018345 9.532866804734985 6.357529181296312
Ge 10.80534568939362 6.705730739466259 8.806531998934389
Ge 11.99563784147541 9.4271515329778 8.265852809583112
Ge 7.518321960002767 11.371954760903453 8.747642377605956
Ge 10.351736992067933 11.491412211128022 9.77803383794742
Ge 6.189068616046954 6.108276151134337 9.593923305314648
Ge 8.705674489685686 7.074389117694003 10.939985984212676
Ge 8.226556296505454 10.02007560119856 11.332264297292264
