11
Energy = -42.45507076 eV
Ge 8.32036216181296 11.987091578419127 7.511216677683203
Ge 7.560802286768706 8.03805889759869 11.395721816755861
Ge 11.411672928187727 9.728056072280582 10.904305695329663
Ge 11.855046081025959 7.18832415571684 10.65195586736491
Ge 9.921012227694023 7.608568891865629 12.176706625654589
Ge 9.547485227881225 7.7401049432199205 9.516952560746882
Ge 8.620686544556081 12.374015956493732 9.967267632840326
Ge 10.063227193550377 10.373435210476165 8.441245482367794
Ge 12.500334470989605 11.302275405624272 9.137330691052316
Ge 8.893317660881587 10.132431188997234 11.026627639936798
Ge 10.715768274533703 13.008350757139558 8.738083719947241
