15
Energy = -59.47484927 eV
Ge 9.174379525327977 12.5843367859077 9.771568458466092
Ge 11.782793416048875 11.801965023247645 9.949283784821997
Ge 8.988597882900075 10.232912542543872 10.670148193376335
Ge 8.322508149038946 12.879486123586926 7.3082034001056275
Ge 10.55518043499886 11.704881546362945 7.582905420087643
Ge 11.781763595683415 9.310972143025985 10.926529253200954
Ge 12.288693276432648 9.800521419083097 8.151329996077429
Ge 9.687268765193854 9.37032021648668 12.955966246470393
Ge 8.00436910178168 10.476788090624042 8.024487846524172
Ge 7.263485743585376 8.505808749461245 11.482678693812268
Ge 11.101489931674134 7.402405503185366 8.835734130208309
Ge 10.063932331205276 9.090611437763465 6.904919198259961
Ge 8.184351042639689 8.02638039622896 8.84790148660636
Ge 8.571141109305731 7.034040702508545 13.127950574489004
Ge 9.836577263135059 7.3449319367911325 11.019255462529877
