16
Energy = -62.70855752 eV
Ge 7.01231724265053 10.64027777180751 10.91556875260742
Ge 8.076440222484592 8.637191280203545 12.06887539528082
Ge 7.532887875333011 10.937067280858237 13.418819705315741
Ge 9.606595221360879 10.779724130814673 10.804840629491467
Ge 10.586468874869036 8.183968534728752 10.990677427182245
Ge 11.76055446176993 12.447797465300955 10.54671295240582
Ge 9.935417770908483 12.050984472220676 13.104260113983855
Ge 9.050382779845522 9.121003949896727 14.450907736938488
Ge 14.243170133101263 12.641028325069419 9.439741906997593
Ge 11.150695828045674 9.724006957708287 12.908006048776771
Ge 12.217827927689315 14.090642239898017 8.610469747867258
Ge 12.569645463291135 12.069293386706411 13.15262475960962
Ge 14.467582056137289 12.262348485955016 7.022142879697338
Ge 13.554994358646361 10.536774114338485 11.225033046811788
Ge 12.142284414464813 11.701856959254345 7.59388927499496
Ge 11.764294433382254 9.90778830130171 9.451064924879987
