15
Energy = -60.77855702 eV
Ge 10.66343003624189 9.89347070162475 6.533219355478645
Ge 8.03705965418283 10.724451314274045 6.628781185796202
Ge 8.710303242241894 8.189451577752413 7.254293321545005
Ge 10.752388358114995 8.989264991099413 8.951162810382682
Ge 10.069585727073596 11.65952228573526 8.351639519768769
Ge 7.58084943403265 12.159935924044847 8.936619493291996
Ge 6.801775553929103 9.592257814037454 8.740475049016453
Ge 11.060429678543942 7.288131288263799 11.12208897627041
Ge 8.724034108896635 10.474146736669933 10.529773942955906
Ge 8.535785249649667 7.796333326876819 10.018664031366384
Ge 11.774640084115337 9.289850457822133 12.784458691048513
Ge 12.95467566921081 9.009945114502896 10.306929973001074
Ge 9.85785924657866 11.27132520953187 12.709572018214567
Ge 11.466230652235367 11.117934048697556 10.665390799412139
Ge 9.148656959899283 8.681682864013919 12.604634487398215
