12
Energy = -47.70784333 eV
Ge 10.631609132303016 8.202055143884987 10.948696284008697
Ge 11.889209544046649 10.395687317292213 11.73787107245959
Ge 13.43932986790576 11.460751151555856 9.94855868991814
Ge 11.12195642251994 10.484156231923087 9.147004023805366
Ge 11.589031650285902 13.070247910090693 9.664195248568054
Ge 9.35289870624191 10.675660077855754 11.663267966669695
Ge 8.895654510227338 12.171685131133884 9.543886353086497
Ge 8.273299068703123 8.40501236087271 12.076034363396843
Ge 8.812589554979684 10.020837412208529 7.940496450630783
Ge 10.682282658181393 8.062200329289471 8.286663977854824
Ge 7.166429288073098 10.074619807929743 10.130318059709449
Ge 8.316514856070357 7.764750200806165 9.454710736911935
