14
Energy = -55.74177461 eV
Ge 6.372499963113394 9.548289272289615 9.907492850011748
Ge 10.105909679639197 12.04702676229607 9.533309774911032
Ge 8.42646168237035 10.358612209217826 11.12402488108495
Ge 8.130538801001272 10.65266148069305 8.291866090560672
Ge 10.819594638431791 9.703052632558522 8.058537751775443
Ge 9.851097724177027 12.160671898814446 12.140901581628427
Ge 12.547679101336469 11.365769520849677 8.837400014790687
Ge 12.094968995320775 10.978741869633053 11.413826467233331
Ge 10.42690588923278 9.153845334316731 12.323236562221402
Ge 7.6613821277891 7.759156053825179 8.44979606423694
Ge 8.999262425789542 8.946889763452461 6.5080257921860305
Ge 8.479011572930546 7.718591746726893 10.960032253419609
Ge 12.170374512066958 8.695605933963126 10.093418452144537
Ge 10.227063065917774 7.2391125770193705 8.740615769734898
