10
Energy = -38.26806129 eV
Ge 8.957020143030972 11.67738142740102 13.079001503895133
Ge 9.313347658552942 9.7219751844644 11.619822133481685
Ge 11.51982537390739 10.832101663036369 12.496295572257146
Ge 11.082383956773231 13.289729319716583 12.48266196643673
Ge 9.010368031012492 9.370408064371691 8.180667456028896
Ge 9.551052838217348 7.71741399762438 10.00704216759994
Ge 9.846291245663366 12.204676181131656 10.542120973861968
Ge 11.399282935436675 10.266930349700319 9.865351412594409
Ge 10.414369150367468 9.276165450521852 6.21361171669559
Ge 11.550540337867703 8.329932097681224 8.258957086312861
