13
Energy = -50.84644187 eV
Ge 12.314507183500757 9.221580497050397 13.000939176341646
Ge 13.273888466985296 11.475284542622594 9.815599067484465
Ge 12.051088477347214 11.612920113051175 12.178344840427375
Ge 11.572583147338438 9.277728096371304 10.594086283072562
Ge 9.127881419630267 12.185404125030503 11.545671509875508
Ge 9.12028061397623 9.757545732192087 10.071880709954282
Ge 12.104283439497642 10.014436033271975 8.056512170755468
Ge 10.695104880185356 12.037046955616788 9.48264602951402
Ge 9.371224805444173 10.767327881836586 7.650719446125232
Ge 7.681360210118842 10.11275313054641 12.107766610745117
Ge 10.349703856640108 12.739084935474187 13.699341737999267
Ge 9.913868779652361 10.1592414123739 13.401591157518736
Ge 10.605046806024836 8.841046161148787 6.595619236126874
