19
Energy = -76.05238504 eV
Ge 9.543498993076092 9.521553628773777 7.050359849403195
Ge 8.904311699882662 7.438076710880701 8.317940466646432
Ge 11.592684027245392 10.761672503764212 8.15433374234189
Ge 7.4551619157467375 11.01365368762429 6.996289709539466
Ge 13.384157749623128 9.052535634070376 9.165835361777638
Ge 11.079959814834503 7.927975990541337 9.550358296990524
Ge 7.568838533264124 9.53505819264855 9.117576741700354
Ge 11.42380935208907 13.202257463204909 8.992808438623381
Ge 9.058526801301571 12.039367724179865 8.66697267971901
Ge 9.096674903613719 13.6135269987623 10.721258207530296
Ge 8.015125336207928 11.162008390379485 11.167753523284041
Ge 12.539395266180865 11.717653380530633 10.84113567034792
Ge 10.36512889637582 10.082769717147094 10.699294000610777
Ge 10.578325218400762 12.274552407675408 12.401446878541108
Ge 13.910861126036016 9.762559138172715 11.635386812760672
Ge 9.156008798114964 9.608174152025788 13.187538103780454
Ge 10.626530570756472 7.721706174162726 12.17346069582495
Ge 12.035819481691147 9.417655470171292 13.388945904309415
Ge 10.593872561871418 11.075933681596767 14.699995962580429
