16
Energy = -63.16236721 eV
Ge 14.64754089501894 13.690007456366597 12.060202115534224
Ge 14.69527500530092 11.699998446779668 10.128602826366706
Ge 13.001785422030597 13.673434322994291 10.166794334788648
Ge 13.427962653294435 11.623129462184105 12.587003742225942
Ge 13.604940001775065 9.337761328406947 11.277706142699271
Ge 10.842311710908321 11.415729652896202 12.186861332053002
Ge 13.381201986168417 9.973238835597392 8.808751557405051
Ge 10.527075449362219 12.643377660659171 9.961724497173133
Ge 8.703926674647219 10.079398386609746 13.253862405331923
Ge 11.058990234625707 8.781040434440465 12.359079516346148
Ge 10.889360686221087 10.045791797224068 9.771616267313199
Ge 8.9632984898508 8.48768353522737 11.023247879858221
Ge 6.966093520569 10.184733199797114 11.236599029016318
Ge 8.394195330260436 12.516787084567909 12.100628642112664
Ge 8.412848178025252 9.396721919067135 8.731986338988605
Ge 8.093418887676764 11.82909398407833 9.53324564414363
