13
Energy = -45.77785686 eV
Ge 12.785276133329093 9.65027085221747 7.626320758527883
Ge 13.142118829953503 7.718325760769921 9.269800183273137
Ge 10.607947241931099 8.600802477148513 6.940277860996144
Ge 13.968529382522538 9.599177379624358 10.393670981399733
Ge 9.790560355733602 9.977570097438134 8.869606567295587
Ge 11.43180637123376 9.984877857882 13.573981242024166
Ge 9.67586731580528 8.841523052888352 12.462384419181143
Ge 11.857199343747235 10.550634578028719 11.096237845853349
Ge 7.968175434702833 11.985177545814016 8.332989351422702
Ge 9.659265893548788 12.374489933846107 10.150602060610384
Ge 8.23220857383973 10.497833969927875 13.437210533133774
Ge 7.5010131213603115 10.964926467054084 11.116522913634357
Ge 7.448262924604251 13.294551357798529 10.779226764648113
