17
Energy = -61.15354486 eV
Ge 12.055706366054055 14.464813838703414 7.866785386235913
Ge 14.868405663163177 13.316792033636894 10.779893776856717
Ge 9.35615157923919 13.550568598889535 8.850828612909032
Ge 14.037522308334296 12.172884743412379 8.138682080687282
Ge 9.666070421457034 10.651702837414799 9.690133123991412
Ge 12.526038957708954 13.271284104414828 12.612161605812407
Ge 11.120230906768889 15.200308760374496 10.656346883745936
Ge 12.228434417164166 9.785304341268148 8.279709648016503
Ge 16.47736799591985 11.20364367685053 12.288188545906834
Ge 4.919514931615828 9.682976283000494 13.8132111761607
Ge 14.310827187492139 10.655466291009628 14.29598103818925
Ge 15.111601258364205 8.520779444899299 12.36332872770021
Ge 6.415458197393424 9.851367625920997 11.18244561304183
Ge 12.393199648622177 8.475376135504645 11.012828554537723
Ge 10.929851393790294 10.696271451218912 12.490769041911317
Ge 7.375896473986505 11.426553128089482 13.560587177798517
Ge 7.648058761786553 8.430382889330506 13.527065914133605
