14
Energy = -50.45849663 eV
Ge 15.57614967196429 11.363097213869002 10.43678571909263
Ge 16.299234585518764 12.116841145946367 13.15948296165132
Ge 13.724292216571381 12.905754494365436 14.487395151645563
Ge 14.094595647032587 9.931332140378583 14.23664458408101
Ge 13.307840996372073 9.231900924888382 11.38751671626154
Ge 12.62083297493056 11.85991400379925 10.076853352444285
Ge 11.683889065152577 13.499091975481267 12.391015270818725
Ge 8.71640007667759 14.051611152281167 7.56709401471636
Ge 10.289420715068552 8.888307088997795 12.415554901208944
Ge 11.079036249075815 9.485270175590387 15.210206011988532
Ge 9.337772859137548 11.16607988306195 8.170547760663814
Ge 8.156675572145211 12.914745893910148 10.304603724990844
Ge 9.610223159368847 11.557271377602815 13.572737116901159
Ge 6.468884157998647 12.100734210161885 7.932883241454701
