12
Energy = -42.23290793 eV
Ge 8.19070344685968 14.692740657138938 11.63780967342258
Ge 8.545144323527186 12.471702075118877 9.627212783697265
Ge 9.770116072752634 15.177926654206098 9.1012696437823
Ge 11.180686558364043 15.214296772608305 11.797144991805059
Ge 10.896352362876238 11.021225508112819 10.835110918218252
Ge 12.730564448554938 12.722933689140943 12.28468796559659
Ge 12.12017778985163 9.594759468265885 8.438858007906122
Ge 9.520311664415063 8.84476436620104 12.464088520202752
Ge 10.584414767514925 7.075355648339859 8.025561926368766
Ge 13.13665817006207 7.084212141164286 9.675863551360628
Ge 8.909484551642597 6.6022556472437035 10.600938339617628
Ge 11.459702841837093 6.597224850454608 12.256410114845307
