13
Energy = -51.2384702 eV
Ge 11.992190758741 7.637559604899565 11.56339891977781
Ge 10.294476459440553 9.427965010514999 10.045942627850842
Ge 9.390669549195431 7.545975248709801 11.408542050381252
Ge 10.327242712493433 9.315743297665428 12.961160743729609
Ge 12.30476253842126 12.979919251290234 10.335807555609987
Ge 12.539143012336778 10.038546892081516 11.359556679930607
Ge 9.93725024066305 13.782714943852453 10.031694621830706
Ge 14.390926629223408 11.844122951264428 11.163355024405446
Ge 10.05456709073446 11.617231584083951 11.584256875861788
Ge 12.598642150968617 12.010803237542435 13.293049431531218
Ge 11.682559539744112 15.531541186229935 10.90190429456026
Ge 13.558120049764913 14.28317551556785 12.412188418771686
Ge 10.73648462368941 13.959276276808026 12.785745402898074
