14
Energy = -53.74673739 eV
Ge 13.223979181986838 15.492299338436226 9.525296830200555
Ge 12.95754042042088 11.504271132904732 10.732069657035547
Ge 13.768138987905918 13.833688690196599 11.22823858216491
Ge 12.373495573357353 13.273304888853168 9.003973539259974
Ge 12.799135132875518 8.551707198390634 13.123877809726704
Ge 11.486300177374774 10.735647521139645 12.81219407394985
Ge 10.42389075214827 10.859553923405842 10.115256066388536
Ge 8.242797401097713 13.716222767351784 12.673844061686896
Ge 11.27765735578947 8.71501849135992 9.004276477328867
Ge 13.347351724733105 8.992589198313205 10.60576363215394
Ge 8.255813794925027 11.834423950976591 11.113551185321429
Ge 9.307423697995654 11.78736474088179 13.734162082029137
Ge 10.88292679340529 8.125824239230756 11.488876960395258
Ge 8.880449347016318 9.629169694505144 12.347145648702803
