15
Energy = -54.16457041 eV
Ge 9.4633584588525 8.532218702939366 5.421325986602168
Ge 8.13729194311063 8.547096050470326 8.158571332756004
Ge 7.941845103264676 10.988994100350467 6.330730902925535
Ge 11.160780129131501 8.354784390382237 7.930477975394171
Ge 9.214777189426137 10.187881931886011 13.637233827078548
Ge 9.742798831237925 12.854759996952737 7.929983058092944
Ge 12.226288415430295 11.157972342565506 7.886491282644904
Ge 11.333360747987005 8.745932494791143 11.984810892481786
Ge 8.206721529498308 11.599787317684823 10.152190114364085
Ge 9.267314064892544 12.989403527853167 12.638496696073032
Ge 13.156933188864643 10.818244535483414 10.796184096979987
Ge 13.253044061514128 9.079131283409302 14.345813961104458
Ge 11.160165316912769 10.590142352936546 15.95641296545468
Ge 12.214462685057132 13.335993297068999 12.107228201532042
Ge 13.385121515479794 12.11847736517707 14.62912156426543
