18
Energy = -70.43144298 eV
Ge 14.368220695725453 11.302656252591367 10.814694280765714
Ge 14.272272056267763 13.744732296248287 11.580906264211002
Ge 13.325749152407349 9.963236049490147 12.930539788869355
Ge 14.124474630682368 9.920816252555042 8.63091150553774
Ge 12.057027264206331 11.273314868359861 8.911210514907115
Ge 12.747441859181382 8.970161840583986 10.588918707786203
Ge 12.201768820730111 13.528828611746397 10.050525051353588
Ge 10.31773936047117 7.9809582559886785 9.923552728353036
Ge 12.25274263608844 12.335661669479887 12.446100348554967
Ge 10.644986512871652 9.46278317430067 12.40482998582452
Ge 9.710003252230958 10.492556487429056 9.62417494536267
Ge 8.906389659438664 11.520403706064275 12.410369592604876
Ge 8.011261971109098 8.872362554886099 11.330209326829996
Ge 10.141962823637943 13.850385494906574 11.660756853580395
Ge 9.465992486384863 7.177177016299659 12.336367668536706
Ge 7.468183556521681 11.039563464328536 8.387792719784493
Ge 8.420978303691316 12.783846849095886 10.047903790800925
Ge 6.582730728782735 10.9400081148268 10.996338994007823
