12
Energy = -47.50138951 eV
Ge 12.99532636567831 10.233459521068564 12.48494466117802
Ge 12.743965198064132 8.305180642738897 10.825778444803003
Ge 12.843193799049137 10.725141312273852 9.72687882475837
Ge 12.85831948833128 12.754783966076301 11.618601957233384
Ge 10.769837673627576 12.615063969010896 10.22950100800925
Ge 10.420607396283598 9.228465147612942 11.082657995050651
Ge 10.93514501194864 9.149262022522194 13.544384974961439
Ge 10.64772737426649 11.717514260314267 12.927018897208335
Ge 10.31219375966492 10.414756610164268 8.673928721231666
Ge 8.753722595623318 12.873140955206363 8.754637708406811
Ge 8.598591238283467 11.180632976565077 11.108992009116594
Ge 7.6974442739784426 10.615937040015512 8.6811408879754
