16
Energy = -64.17310857 eV
Ge 9.830552920851778 9.38344307069709 11.675430904508254
Ge 11.351745725521404 8.505812155637956 13.802439208743916
Ge 13.100248580555268 10.67194531017377 14.578885116810756
Ge 11.112032551488738 11.10761485921539 13.068448542260795
Ge 11.976324953322832 7.845632473938105 11.226831302168305
Ge 13.868162913135729 8.815128078447852 12.915940038538135
Ge 13.905551140423729 11.47329749584842 12.128915947582493
Ge 11.842233388584509 10.458065304487675 10.396695997149473
Ge 14.184301615514546 9.481664307282559 10.377619328417381
Ge 12.150968738956022 13.24040775094273 11.289647791592952
Ge 9.49108842857286 13.320312522121293 10.662628983561639
Ge 10.85421103621237 12.359800831946329 8.838379131081933
Ge 11.787127755107623 15.608950696866271 12.353399245473252
Ge 9.621474174460534 15.870191288450332 10.937929726833238
Ge 11.545590421611044 15.00442735174565 9.452019850756601
Ge 10.143738947078745 13.658214588264878 13.161722351157698
