10
Energy = -38.46963181 eV
Ge 12.757748736851658 10.324741562073902 10.80427494847293
Ge 10.360904183467762 12.655153817708223 11.76706917602583
Ge 10.042763896511229 10.794451278109438 9.691583055130394
Ge 11.904345770470238 12.515981908726602 9.204522283807131
Ge 10.514638279929258 10.15518193543602 12.357998729634188
Ge 12.345069812600661 8.321572679728314 12.348753709319821
Ge 11.098800732386422 14.580133327033383 10.305507564642074
Ge 10.801502234689496 8.400700297699242 10.050353461744578
Ge 9.671534863944448 7.8284718074460855 12.389491981325177
Ge 9.026521975194546 13.059632265149398 9.446351257452726
