19
Energy = -76.06728733 eV
Ge 11.357362004600443 5.681184529760032 12.351979471944775
Ge 13.353849273843128 6.931644482315047 13.37700964855743
Ge 9.693669929553481 7.528253226742005 11.553806072086415
Ge 8.00391425835753 9.23519861621143 10.853363615076022
Ge 11.21363815272329 8.297967709242746 13.589178568943513
Ge 12.315541723169334 8.002305685563998 11.001900588379241
Ge 8.8940447948833 9.471616853725198 13.574594910068345
Ge 10.45851498564656 9.617929908870869 9.60261781494584
Ge 13.474712974854187 9.622427954356345 12.936679061184979
Ge 11.13351660736717 11.081651872875183 13.670444927008953
Ge 10.06530523822634 12.20582628188864 8.408658772940655
Ge 9.450066740840926 11.289644685371456 11.59406433540447
Ge 9.501669090123066 13.4594919605826 6.139200488411133
Ge 12.043875968034985 11.067428827401375 11.143931914397076
Ge 9.62410978219501 13.93405598082351 10.525336392076817
Ge 8.016078834812358 13.892293854129068 8.336588651980104
Ge 12.021430514600022 13.195761091736312 6.909080245719234
Ge 12.151095873110837 13.493480844578867 9.597744373813764
Ge 10.436731884041942 14.983158987330304 8.122925918766033
