15
Energy = -58.19390349 eV
Ge 12.139275092679673 7.172988910226523 7.6087879739730075
Ge 10.685760181165612 8.721189655732092 8.794132432704927
Ge 12.418256095860128 13.104966335591397 10.062062709455384
Ge 13.389785749507258 8.949749809274063 8.655155389782658
Ge 11.956827286909235 10.636511661122482 9.857321588082144
Ge 10.559230810868225 14.757700179148985 9.894104075334859
Ge 9.563599685819387 12.627711052905449 10.897620664383101
Ge 11.414565959079452 14.597196132237684 12.283818410084425
Ge 9.404824747956521 10.987033033139761 12.908877528916456
Ge 13.613639045157624 13.096288453995097 12.49119080041844
Ge 12.24007249810898 10.535300887780824 12.35322735329184
Ge 9.257399140381882 13.781813832125211 13.44870083851689
Ge 11.260767587960782 12.517885231347755 14.363462539743296
Ge 13.539553334239297 11.34932814273363 14.51985457522495
Ge 11.194633684214486 9.802527582547778 14.499874019996646
