14
Energy = -54.94131918 eV
Ge 11.940542618831845 9.801039535581502 7.803848382961162
Ge 10.409314027347216 11.567985870085039 9.189014100835626
Ge 10.928830878799166 13.962340465694462 10.306443510706035
Ge 9.936743744313617 8.331435933599929 8.760807875049473
Ge 8.195626031308821 10.264929098921655 9.121004219912928
Ge 11.347881406433844 11.64874493230581 11.859121855191903
Ge 12.993292431540674 10.934672346847055 9.95569819836066
Ge 12.37527882359355 8.44496892802796 10.021269280752533
Ge 10.634618714252772 13.887752251722038 12.890595531095585
Ge 8.700535132902532 12.996512649754955 11.239708504145632
Ge 10.856605651978297 6.244828693603557 9.680548303792051
Ge 9.204048785948208 9.959053643175022 11.373351788653155
Ge 10.64229677131903 7.829794376192594 11.758033757840378
Ge 9.141574448999178 11.630451823357925 13.432788904867358
