17
Energy = -66.26922735 eV
Ge 13.680683697061166 12.53947521892362 7.932234384940933
Ge 13.267882121180014 14.224225365557592 10.226718512701991
Ge 13.411245957325972 10.955199177737777 10.348096898737754
Ge 12.42126359040729 14.755093159691477 7.876290249682059
Ge 12.155949501385683 10.52156587447932 8.101982904025817
Ge 14.286324054525391 12.62729673567802 11.998007836960916
Ge 11.067207269108422 10.067777367271466 11.622532030715824
Ge 11.078817109529131 12.808502929071679 8.790205725481767
Ge 9.4847679847392 9.557673438567251 9.628811836828207
Ge 10.57992427120887 9.904662055594013 14.15801496939672
Ge 11.724073367320322 12.749548387618704 11.732995770630687
Ge 9.699128094521523 12.299308645993532 13.271779615744748
Ge 8.911849796030326 7.695750107231141 11.21361027636938
Ge 8.19212953844997 10.003095376072716 12.39353348362005
Ge 8.384919139756807 5.9239421046455565 12.722449061793201
Ge 8.872325408395952 8.01292233869901 13.975198297880606
Ge 9.104746312779382 12.035365179244991 10.713241880621812
