15
Energy = -59.6011666 eV
Ge 10.880064111852294 12.669959023361427 9.842915580848597
Ge 11.857576902827804 9.966307764290605 6.363543843415694
Ge 13.351309098190852 12.208374292102745 10.60625759867843
Ge 10.06449735738523 11.217681762383167 7.8666850554845364
Ge 12.88315274130562 11.18050473214126 8.309286105191807
Ge 9.242037156692922 12.158232566703115 11.951407261787534
Ge 11.522650648137695 10.773305804966773 11.866709779404248
Ge 11.470967374196132 8.795861335729665 8.554544528589856
Ge 8.427542186081416 12.683507819790835 14.181296363106139
Ge 11.248706484199712 12.835086718190142 13.731436231990983
Ge 9.36560525542494 10.17824687257899 10.12604105259881
Ge 10.96631317791029 8.319688837253223 11.031919632698083
Ge 13.389137454168797 9.456997468407605 10.400197511808432
Ge 10.220377484503844 11.976815043210888 15.86490501632973
Ge 9.862188480946555 10.283237478513513 13.992615037625411
