18
Energy = -71.84944512 eV
Ge 12.50964215794862 10.064742696713898 14.25779377592569
Ge 12.62407513943889 9.338604221342028 11.525157145319154
Ge 13.254368860006092 11.715207231085786 12.27730866389962
Ge 12.491270844557047 12.113216051066118 9.249173624942099
Ge 10.466200243943414 11.15638583427527 15.354026378192971
Ge 11.918010864315098 7.582172517878617 13.269298661872195
Ge 11.104078368415204 12.221974014653654 6.864851674480587
Ge 10.800645520919884 11.883882811725872 12.918527385246888
Ge 11.875121505476603 9.625920128195048 8.99078089687339
Ge 10.270351274145384 13.835402214982652 8.591370324172875
Ge 9.935576717325414 9.073746535981087 13.956444167592572
Ge 10.063167378032757 8.450096238239274 11.31640665078921
Ge 9.627853735841 9.41321346994443 7.80570716799148
Ge 10.107031660556014 11.519244680708818 10.025269218509207
Ge 9.45152348299098 10.657141334282118 5.6581501674551085
Ge 8.613296738543893 10.635399969784538 12.198260593556975
Ge 8.48553353420253 12.080012612807662 7.736310236836378
Ge 7.901292358366119 10.117279643752903 9.495227751750097
