12
Energy = -47.45150162 eV
Ge 8.438613332991027 5.905338421993064 9.921366177566764
Ge 8.08371273990465 8.418252854373927 9.755521317460312
Ge 9.123070576501124 7.029952887035914 12.033969155023314
Ge 7.849345114099694 11.003503892824083 10.345947777376637
Ge 10.564830724491147 7.420800354334251 9.215260958856762
Ge 9.601267475027349 9.069674004544002 7.316552519355726
Ge 9.873215451535893 9.576283064733296 11.53759252369195
Ge 7.215924384947978 10.000150248709849 7.852735670526808
Ge 11.421364971041498 9.877783870723565 9.344910879285571
Ge 10.334375763063989 11.96732495940155 10.528754408154867
Ge 9.125403450172737 11.803282795241161 8.091136795414153
Ge 11.360692696705794 10.918985757371095 7.073653086605694
