13
Energy = -51.78043275 eV
Ge 9.703760355401988 9.253805970207635 12.23445020891641
Ge 10.448807551153658 6.976193409035185 8.351645987819264
Ge 12.243446161411914 9.851115163523037 11.370539295703992
Ge 11.247556177916833 7.338204662941839 11.019931647080101
Ge 8.85367963753719 8.097129678868962 9.985005194684616
Ge 7.900616712752939 11.5616450202954 11.71577632536446
Ge 12.487478924794624 8.530739317249926 8.976813586318531
Ge 6.404661019540569 12.015260818704693 9.684526483246472
Ge 10.241335704733812 9.535887420188907 7.696693015966697
Ge 8.075713714237384 10.354617733226105 8.956950337695071
Ge 8.780247523532351 13.091026277234066 9.508408674217186
Ge 10.215965638783363 11.217525849853393 10.442358121078206
Ge 12.200683781251627 11.067659482151132 8.776425291461114
