14
Energy = -54.75120845 eV
Ge 7.521340897476594 14.457533627751495 8.372551975595593
Ge 8.690449319733093 11.012696008085367 8.801623364086954
Ge 8.968639816091018 12.856645340686459 11.1977270241425
Ge 9.668813174230852 13.301478785206756 8.81643547863468
Ge 11.754317015029129 9.168923553599905 9.334074631584047
Ge 10.205292410000922 10.456734199812935 11.136381607326813
Ge 12.788346280012238 8.353306648606786 11.634385494097097
Ge 14.308830940351237 9.450897972655065 9.925035324751075
Ge 6.942132373655736 12.486480981543806 9.812614522067934
Ge 10.414327745761224 8.493702391778138 12.847316247413069
Ge 12.668407723991455 11.41114977479939 10.634069437360695
Ge 11.751656560976576 10.859603028962846 13.354657182352003
Ge 12.688517396572033 8.541452886566931 14.156607933239691
Ge 14.35118924558756 10.362743879043546 12.549233197991848
