13
Energy = -51.58903371 eV
Ge 11.75715974395008 9.507077304854828 10.789897067080801
Ge 10.21452892306196 11.786313194923032 10.651080403988606
Ge 10.193047664674149 10.085762880673784 6.551864318660396
Ge 10.716022784448393 8.221875595770376 8.369309124996109
Ge 10.070814076386952 10.214283602124047 12.688077438637352
Ge 11.690238193546211 10.995145486469045 8.678886089691684
Ge 10.237633453763351 7.177293177998214 10.71388163771683
Ge 8.137486428784083 8.686052593711754 7.010798318196841
Ge 8.702702141510663 11.174793223930177 8.493631921510294
Ge 8.629134898824436 9.276041170392695 10.878174987668483
Ge 8.168414110618853 6.942521718258078 9.211835930752972
Ge 6.113438182227902 7.5588591750573 7.949887404736394
Ge 6.65915840187946 9.658734271563018 9.298749780331292
