19
Energy = -76.91217571 eV
Ge 6.476169844090768 7.818929953166301 9.213168256903062
Ge 6.196882043934379 9.064603681936033 11.654610753596026
Ge 7.171736325881497 6.51442785468109 11.459593997893728
Ge 8.121351525553184 9.67955418932957 9.697753728798402
Ge 9.734158629263616 6.287556694013067 11.971193916477164
Ge 8.245872915228421 8.227126707285953 13.337168285910536
Ge 10.022396764486267 8.724020264815831 11.338097938810483
Ge 9.01516859783285 7.030469803407485 9.44030194491087
Ge 11.530424787433924 9.187246358742534 7.703513323365829
Ge 11.855517763227438 11.64903389198848 6.542236061744645
Ge 8.348628299293669 10.626494659113956 12.136154787880567
Ge 13.729871705852657 10.775440091828528 8.26859431486181
Ge 9.833699416722459 11.038488941757828 8.34000109802629
Ge 11.775286197449065 10.197883349288013 10.071312278993192
Ge 10.150100492133904 13.501577114579272 7.733401665454088
Ge 12.829255963779309 13.424132392722242 8.364172374988447
Ge 10.960555020658626 11.54057045590514 12.307604569003507
Ge 13.430861006970316 12.1498163539393 10.626780720174764
Ge 10.821819389970615 12.876662877155498 10.145197366660648
