15
Energy = -58.36594475 eV
Ge 9.073920407520509 13.68125504975283 11.636602174399922
Ge 11.183293769432995 12.686422532773681 9.632869643399218
Ge 16.344564794147246 13.631414011646847 15.130055895396135
Ge 8.87689726530759 11.373191830997548 10.278202929969634
Ge 14.53086599859722 12.489244702552512 13.998131998624352
Ge 13.557064967204317 12.415330634949726 11.476151383438578
Ge 12.888077921349778 9.914140617506945 12.10052894350861
Ge 14.22621450482062 14.840964204822498 15.40578784305548
Ge 12.722101012117484 8.266114270160799 10.18664436297567
Ge 10.927226553560137 9.919530287987257 9.769315360761128
Ge 13.484052078499746 10.692340443732503 9.490852706568178
Ge 11.523457935262108 14.237825708182816 12.010686987269635
Ge 10.608541290274289 11.326319533328727 12.29735910350262
Ge 9.873484992897815 12.950634641280393 14.108326319655752
Ge 12.295673330229961 13.632643150823657 14.361999212092996
