16
Energy = -64.83128302 eV
Ge 12.480624789973255 10.566640825046457 10.575161690266771
Ge 11.127649528131991 9.506922221227573 12.671968631179476
Ge 12.550334089117849 7.908513343162213 11.074835294672598
Ge 9.94623901795325 7.29801663086097 11.510093415754122
Ge 12.65248321759185 8.798068544460781 8.5549525949685
Ge 9.506414323853058 10.252927702449925 10.862007162017257
Ge 11.107501632464302 6.601488253336835 9.189069482880315
Ge 7.348934606178166 8.504353188808182 11.189748037818683
Ge 9.18035288785722 8.306216085888357 9.00710873728175
Ge 10.60693720492479 10.432900137918619 8.485068818416448
Ge 9.021560054057945 12.602606097460022 9.617807384125095
Ge 6.58425977360064 9.090829659193954 8.703623383094317
Ge 6.965227998952602 11.123253299044435 10.56781686905412
Ge 9.32587534171849 12.054705962891777 6.975854093588915
Ge 8.37426384479774 9.49949985915269 6.764232966864036
Ge 6.929812487409124 11.641117401983271 7.952714279878157
