19
Energy = -76.31852827 eV
Ge 11.330833915775784 11.7012946703072 7.769257697182944
Ge 9.14551264945002 10.460243045703052 6.748887628539204
Ge 11.57871554187896 9.219712396125159 6.810973033818035
Ge 12.921219420929155 9.915133445115732 9.112947514252966
Ge 6.984193979227216 11.305373814303852 8.228776212607533
Ge 7.2590991761154156 8.731400858596485 7.601280163889276
Ge 9.10137862501747 12.68433654027189 9.12698370847759
Ge 9.708197229413821 7.399751693177331 7.463589213197279
Ge 12.284020423324243 7.336615994913985 8.538632135731905
Ge 10.51185087467497 10.460724225710049 10.115833240828676
Ge 12.152397243472059 8.219610112176898 11.193595905084774
Ge 9.442273982318275 12.101079796228854 11.954348011784594
Ge 10.324818257336014 6.365191905911354 10.116372530095264
Ge 10.660008811566382 9.97676288924279 12.865966779336445
Ge 8.879344645046608 8.606732296731897 9.863512800118574
Ge 7.014679599474826 11.928840313868122 10.801698642504633
Ge 6.351063696182431 9.38845414755204 10.108547494339431
Ge 9.695636156787211 7.571350487008077 12.344102379696702
Ge 7.903559875548546 9.794301713909913 12.405896797560802
