11
Energy = -39.14578212 eV
Ge 6.645219101147165 10.862723197241953 12.1951335686092
Ge 8.425569991972464 8.404117034135275 11.474804008492281
Ge 8.210878126850044 12.621098944238877 10.271911996618071
Ge 5.754653546104268 11.134846759326148 9.301211268148235
Ge 10.367460788148248 10.53924256045207 10.589181737543024
Ge 6.602607059319105 8.249526249639974 9.083360259699143
Ge 12.236107662086429 7.257797353747307 8.589253097987788
Ge 10.94562365663456 9.879880270478681 7.707192946446475
Ge 9.762425429878425 5.72350181457932 7.674154462662779
Ge 8.491954292441875 8.332790741260288 6.734406919101249
Ge 11.950202717675984 6.382957536691181 5.751076594307934
