10
Energy = -33.72489087 eV
Ge 7.37736893044773 9.077726890871174 5.825063209570396
Ge 10.897804543023057 10.128468628116403 6.7131557695728805
Ge 8.667674520816709 11.013369189267916 6.466471851349602
Ge 5.715698877751385 9.083740223036193 7.5936157609562525
Ge 6.119043594190996 6.876345174530712 8.493591688853687
Ge 11.32211504297859 10.734314501973792 9.025571522548587
Ge 6.658657805323513 7.331194521412418 10.796880618695333
Ge 11.726015673883586 8.517662567398352 9.904682879022461
Ge 8.864065162418534 6.337384754413431 10.959372998674825
Ge 10.074646961296073 8.322884661109928 11.64468481288572
