18
Energy = -71.0670988 eV
Ge 13.671533427028042 9.945588544908802 7.484166381333082
Ge 14.697512763382138 11.995327469769741 8.419773275935704
Ge 15.064288302196786 9.628193387108018 9.705835652759303
Ge 12.248122124225452 10.138287746109278 9.575340403066726
Ge 12.262650525966647 12.804069875096527 9.788397940567073
Ge 14.109613441489435 14.37490358974602 8.905455654952364
Ge 13.935083833152559 10.968636664931667 11.546753485384832
Ge 14.605995030654114 13.420210024781337 11.261615778392516
Ge 10.284240270266931 13.60938106428944 11.478299437270095
Ge 8.461492793570283 11.57456823036924 11.00699181891421
Ge 12.466305597130802 13.355470529940893 12.762437518215995
Ge 8.919463616413113 12.348587987772694 13.682339514670236
Ge 10.9426051467908 10.92181376589071 12.109107400842468
Ge 6.591811494729034 11.347323722973348 12.883386603352436
Ge 10.238468441252447 10.410127801905812 14.859515905984408
Ge 12.902605661698127 11.032319474741591 13.96873247635416
Ge 8.607479301081378 9.600668854656332 12.930772518395242
Ge 7.4861019684941 10.608981928783074 15.162841383834495
