14
Energy = -54.707459 eV
Ge 9.345265138477433 8.572700861648723 13.210235063796553
Ge 10.363050525061626 8.895521585542518 10.97765842956282
Ge 8.426441853132282 10.822397189071946 12.572152980997869
Ge 7.514301798973785 7.336380298593474 12.0649992168237
Ge 14.463874943440462 10.873366450635974 12.29009336454015
Ge 10.623771066343657 12.198210569212108 11.787575880465488
Ge 13.041134976207953 12.94406015887465 12.79142824205532
Ge 14.700032258811504 12.55203502759706 10.343962740371024
Ge 7.956726003986398 9.32306784987003 10.611091212534856
Ge 11.235575320085202 14.661768490130548 11.988047596589249
Ge 12.524024013114145 10.66556636365485 10.675758477702132
Ge 11.943500509547748 13.531083300593629 9.767597061011815
Ge 13.781787332689092 14.915019919514089 11.180248120302469
Ge 13.14973328035462 11.707001955807707 8.461343186035242
