16
Energy = -63.40861876 eV
Ge 11.214707596016957 11.872577695799466 10.338662760044778
Ge 8.589660950117471 12.371619763015355 10.198200697054286
Ge 9.804448436010842 11.255781357725043 7.5695075493974375
Ge 10.684188378317112 11.332515648980527 13.478878703528027
Ge 7.281116855308772 11.62772043204998 8.097984220220537
Ge 12.966855466552593 11.947130177959268 12.38381328273025
Ge 13.531491934186855 10.187330537475177 10.458839979007337
Ge 12.275503929287327 10.691499346881976 8.037385282622893
Ge 10.166908782709584 8.798185667925171 13.530128336209499
Ge 10.554922139324432 8.594452778095924 7.663597585952133
Ge 7.0050438068958245 9.895695332750867 10.121724434285156
Ge 11.30033467035983 9.085021339673208 10.185898528864062
Ge 9.240034151105911 10.128881152768423 11.464817150529878
Ge 7.90716817887039 9.05279158761605 7.648600831563931
Ge 12.59813508572543 9.404749051500884 13.0907703570939
Ge 8.965200186806799 7.860056184868341 9.90194456525258
