14
Energy = -49.91958389 eV
Ge 11.528533358526591 17.77668243017584 11.505746638019932
Ge 9.307271473427903 15.735698357430287 11.289722092161082
Ge 10.314733900137051 16.63416833908806 14.005745784049857
Ge 13.020980724160887 15.62679832557439 13.040377020048062
Ge 12.766421811579715 12.834284640229356 8.760585032309812
Ge 11.524182661802879 13.566116572623708 11.32461949166189
Ge 14.237446957346618 9.132336229114735 10.706312602829216
Ge 13.343064607277059 10.158409592305599 13.410612628898853
Ge 12.087662806792244 9.951599096728797 8.774526645049438
Ge 10.582098496419457 11.238444503210166 13.019878247617035
Ge 9.677133778046638 9.774191759813913 10.574916273750429
Ge 13.124416067662755 6.378934094844445 11.392220746073844
Ge 12.106271718503928 7.444708338616312 14.067267291643669
Ge 10.18901707289533 7.038803500267615 11.750728795137421
