12
Energy = -47.27387603 eV
Ge 12.168430189661837 8.937224231657439 11.104815410106305
Ge 8.201203348695211 10.419093363181547 8.342613316913768
Ge 12.334744481898804 11.870858048053142 11.272592611478862
Ge 10.263070759701408 8.72807142993847 9.294786653065117
Ge 10.21196218985691 10.44419269825116 12.021917200188046
Ge 8.095168151908664 12.657787759470393 9.659575121657252
Ge 7.852536294133485 10.527217822563333 11.090176181463404
Ge 10.65132269849588 10.29093060162429 7.36537410433258
Ge 10.494516300097459 11.802487468858711 9.379352905938777
Ge 7.772345068755761 8.30321695039572 9.781975611357845
Ge 12.175344888250901 10.227166718849489 13.51124423474242
Ge 14.192589793469647 10.22752365579152 11.61546334931304
