24
Energy = -95.96191058 eV
Ge 6.538928307379053 11.860551558436658 10.501809553453104
Ge 9.048570626045858 8.856473793449016 8.998201757818496
Ge 11.374633796065728 8.606409130934908 7.768370116522484
Ge 10.82395498041486 7.487307027510892 10.607558065898003
Ge 6.114957304398559 9.651856587887066 11.779061722090916
Ge 4.17498347544567 8.11531763465272 10.945452715220702
Ge 9.676304659680167 10.04292993032297 6.4359819819854005
Ge 4.952505218971674 9.964902979525245 9.313924823964854
Ge 6.428766649415747 7.498652146625964 9.896842710290986
Ge 7.626329480623873 8.721373423056429 5.30562976308666
Ge 7.089420098682048 5.347244013780066 8.52346697590057
Ge 10.860170389058416 12.343003133668645 9.431770885818471
Ge 6.748459496568857 9.195494582371111 7.629251705211802
Ge 12.223855799744808 6.122755699395967 8.823704086610535
Ge 8.396059857408614 8.242223347168995 11.5242686424286
Ge 11.974885112025458 9.999547413972065 10.01607420392941
Ge 8.197319138745835 11.375457002411274 8.453312288026924
Ge 11.299551166322365 4.079230011695908 7.509483385853563
Ge 10.792449364569482 6.355183865243209 6.355567240928965
Ge 10.037959362907113 12.493748685519321 6.88558100558317
Ge 9.150206817418248 10.79333897059245 10.901988365479129
Ge 8.272422591265714 6.870307727998283 6.916402563145009
Ge 9.662251597910927 5.337421620828017 8.914574080547865
Ge 12.340900199545638 11.142207723726095 7.569901849523429
