28
Energy = -111.99316848 eV
Ge 9.392138040324738 9.954827918593187 13.999979410052296
Ge 16.447014970804112 13.019871491993808 16.22252084323211
Ge 14.104181360140233 16.603900045076298 9.295072791522513
Ge 16.132964854133043 10.096532885001855 12.841156974619569
Ge 14.532896018806774 13.724087161086304 14.613345767529323
Ge 6.726139859226798 12.943666463180953 12.020324449493943
Ge 11.99369706393098 15.550151439980331 11.941362736587259
Ge 10.461656168823954 14.233319666686116 9.03921839740903
Ge 8.567391639118267 12.502263425819818 13.735458455067453
Ge 16.491286135851354 10.519980057814998 15.436865077298707
Ge 7.977097321717128 10.569809191360562 11.760107919066613
Ge 14.46001826512744 15.284862854222547 11.706974225847441
Ge 13.067853982487879 14.345278667939487 9.704359197273458
Ge 10.458670697605617 9.313418937104489 11.652269207729669
Ge 13.155209810726042 9.510413370469783 12.355956919036803
Ge 11.503539564886914 16.582654531535294 9.66341252426286
Ge 14.281193973657535 9.306286963720785 14.85153382404591
Ge 14.324838462510808 10.961132752733372 10.432648513716641
Ge 14.109294750210742 11.525582257064185 16.42861228030363
Ge 11.692830765306303 11.575711269627394 11.265415096238797
Ge 10.597152243970058 12.051012751913184 15.246160429166249
Ge 14.952024627359396 12.74042229771076 12.191639538429945
Ge 10.984338200435326 13.396316390015755 12.89149955782661
Ge 17.03115354889626 12.579209574658671 13.662144632155893
Ge 9.681424915107048 10.960709724103548 9.57850580518535
Ge 8.995132520832303 13.180226084933459 11.012362327568496
Ge 12.262887489484683 12.070903355189898 8.77106501057351
Ge 12.98594892780781 11.654716445963613 14.017188288747592
