27
Energy = -107.33830234 eV
Ge 14.636804408679513 11.011190295959656 8.9342167793486
Ge 12.292197753393337 9.198079628697199 8.006965171874556
Ge 12.54836207285924 11.699467922353772 7.389339424636511
Ge 12.97588890904444 9.979044520856714 13.116072001733405
Ge 13.532494556136994 13.147371768282136 9.623857083029696
Ge 12.987170130185827 9.962491723707249 10.575756782729103
Ge 12.049609768684766 7.5037076784295245 10.37451507011208
Ge 10.867099934979182 9.35857733579091 14.363317637945256
Ge 9.748508709102001 8.914423324188478 9.16486089521609
Ge 11.939269132668887 14.184118000573518 7.8584287945085265
Ge 10.913239043732528 6.882622045562253 8.022928540221985
Ge 13.81098166169712 12.152627113682694 14.2197356747649
Ge 11.271399022279256 11.839534570411294 14.392236190241915
Ge 10.183563667138339 12.474606927006407 8.591380948424904
Ge 12.77630523421882 13.267459025521763 12.13533224708019
Ge 8.592219380411724 10.633318133334521 7.68006273400729
Ge 8.587231583298458 8.299069348388112 13.518750990050936
Ge 9.701102107682827 7.208355420297415 11.421361845799131
Ge 10.380048855835259 13.738926404122726 12.773988818894614
Ge 9.408459151212234 9.927561739161398 11.744694853958734
Ge 8.35362827629696 6.726396463940651 9.257361578976555
Ge 10.929347717999436 11.788965131899506 10.980846456264542
Ge 6.092197942231905 10.925067175126943 8.337727806118394
Ge 8.984562009049524 13.78949439099734 10.497809579174264
Ge 6.777647385012942 9.827236805872026 12.019559119250887
Ge 7.333819941019302 11.759692650970576 10.35140763597385
Ge 6.92994096130538 8.876903750230113 9.642654387851742
