28
Energy = -111.37453897 eV
Ge 9.637633929795822 10.813996858074805 12.66722774887267
Ge 11.172284918858912 16.432876269729242 11.197119340362867
Ge 11.651746862439097 13.81489497438737 11.940237828956475
Ge 15.69844304846295 12.340443351950324 14.248661133786696
Ge 11.498406327203393 8.737764341482263 12.63623238900154
Ge 14.643808322550528 11.182120945453 12.010842222556372
Ge 13.685123744327674 16.117367293610577 9.788153704193427
Ge 11.1771567646973 10.106551289094838 15.010963818628294
Ge 10.69241797411068 12.698859819437937 14.2892947994305
Ge 11.904110053569063 12.032411211000463 9.146102120989614
Ge 15.6636501616904 12.147993763554322 18.339664828347193
Ge 12.719600644398884 15.796743787383694 14.055349353812604
Ge 14.06755525923912 13.780658079031188 12.788831763866723
Ge 13.360043366739573 13.24710640659033 17.989200179716452
Ge 15.670534955175686 13.885931491102252 16.515759658717883
Ge 11.33543976591914 14.554285945322885 9.42414497098405
Ge 16.87839386985341 14.284453317608685 12.566683572812165
Ge 14.462532679214087 11.057334743740276 16.23309507834513
Ge 13.047345182121397 13.054637406501543 15.369892596188715
Ge 15.312570393974493 16.1024986799302 11.85923142032708
Ge 10.258775664176454 15.202405876536762 13.706092431969699
Ge 13.61342664456038 9.706107229898292 14.01021336194582
Ge 13.357568013259682 17.6123466208811 12.302479230850032
Ge 12.070162429638026 11.100218770302034 11.551193532580763
Ge 13.670531082806482 15.448844274007095 16.518142808795314
Ge 15.437605039892224 13.37798252001755 10.55584293923822
Ge 9.366945477078788 8.618023619327893 14.012552017758994
Ge 13.813619020124985 13.664702493991657 8.594706356696394
