28
Energy = -112.24266316 eV
Ge 16.38220200488728 10.656191281410125 12.378645641049195
Ge 16.62401097364781 12.001219336387766 10.106346857353596
Ge 17.13980887577564 13.160496281890838 12.435587815045949
Ge 10.929346078302615 8.126458699091893 14.49040571573559
Ge 11.578959606044359 9.51260506417783 12.23157643680353
Ge 14.427489402634658 12.272488752359612 11.483417305352337
Ge 13.433963147972568 8.10313535949508 13.385321790282765
Ge 9.371431624520453 10.100469716785184 13.655559704693937
Ge 11.359513739420601 10.281114553378188 9.749484523325492
Ge 15.011709820579375 14.492002942843184 13.053639128288035
Ge 10.62859045865461 10.419004787886855 15.996899071408347
Ge 15.650909661229747 14.374272321607423 10.366661005348977
Ge 12.966943017199647 8.994739154732303 15.913579723420515
Ge 11.68999053589072 12.536149762258512 10.810412651174829
Ge 13.951253411987524 10.62707273253702 13.687862161313964
Ge 9.41341652630055 13.179073955234102 12.406465218379225
Ge 12.381453164111935 15.031291984133487 10.15389484276418
Ge 10.386540379396159 16.44051485327545 9.286776520055453
Ge 12.949363500506555 11.754859239035284 15.835685211398625
Ge 9.882291902886795 14.013357835922724 9.41960545848733
Ge 9.127974217192023 11.725473025353141 10.320706259585656
Ge 11.39182747306123 11.793672463066772 13.60112449982422
Ge 14.39347715711434 17.030220890586616 13.296478332940199
Ge 12.283743423089268 15.660790071915708 12.732414888146419
Ge 15.006132238310903 15.652776034260038 15.490611305400762
Ge 9.933174948437584 15.800258074714387 11.736997139051452
Ge 13.009412298093517 14.06523659765568 14.59008567694952
Ge 12.591776650196957 16.57150149118311 15.299142360307142
