27
Energy = -108.52491547 eV
Ge 15.27650276449147 11.417249902740044 15.490997304034595
Ge 14.191897038440464 12.581783238807942 13.34156334451355
Ge 13.277453209917615 14.470111979275263 14.751652666870221
Ge 14.851063126387157 12.341769613949365 9.145402882014075
Ge 12.911153859945713 10.629883655307086 9.515340343277437
Ge 14.804333919634571 9.105915998724623 16.836695518728156
Ge 14.766487157310893 10.908121836716354 11.415572064938257
Ge 13.184188697249626 12.426050091823392 16.536797874585766
Ge 13.894096267017495 7.738733882638281 14.836077930097433
Ge 15.70256455407161 13.547449355323149 11.278798169834781
Ge 13.015120707802067 10.185173059494998 14.713667919095274
Ge 11.431189778491559 13.410051634454613 11.389235575186019
Ge 11.323224052400313 12.9287646747089 14.119825585259314
Ge 12.770740468000572 9.927117905448416 18.233269391214513
Ge 12.10437631843451 10.936469617311817 12.223246960588488
Ge 13.546971750845058 14.805364917525509 10.525527942095039
Ge 12.009107759931558 8.299638633675166 16.494743689950017
Ge 12.162070771929866 13.130923619091774 8.846839203007836
Ge 10.823526502167306 10.744322163855273 16.148005276427437
Ge 11.488838708189759 12.065992119934966 18.36579945218515
Ge 13.15601612113768 15.433731361499909 8.005676010295472
Ge 11.414610627826265 17.338051963120563 7.415815902958933
Ge 9.562337648651681 13.218391207852381 9.52125369322354
Ge 9.731867094998556 15.494793007255351 11.100979995113265
Ge 12.018146212706519 15.775415545068439 12.464462263670304
Ge 10.238488839985411 15.418870758996222 8.40599345522655
Ge 11.757155594561219 17.023799334242582 9.992303995763452
