25
Energy = -99.74085672 eV
Ge 12.15694792016115 12.128478131787363 7.482827223240225
Ge 13.142013533169028 13.794895757512652 9.38332050688355
Ge 13.180292086128766 9.691764236040486 8.046043342423474
Ge 6.532527419962641 10.963039317739689 8.749266526668281
Ge 10.476929038933669 13.851453196806112 9.003529835748505
Ge 9.625103022843373 10.920718084909145 11.92709958745563
Ge 13.80232660622885 12.48653900318512 11.701750444497337
Ge 11.320139169665149 12.857864005793514 11.21907932485517
Ge 10.47397805404882 9.934255864079967 7.243473400426536
Ge 7.871083339978135 12.63891047386375 10.431530193262233
Ge 9.001563248125805 11.913645170620857 7.726068098972985
Ge 14.564761654611699 11.445769492222311 9.228061758633453
Ge 10.944904155833076 6.483937364168978 11.510885302736547
Ge 11.569578231120992 7.48420412398243 14.02808274660243
Ge 11.122399675932083 8.396757676320467 9.776754257125702
Ge 6.739926505674776 8.693271593597254 10.158207822983657
Ge 9.562915405110727 8.360167494542504 12.690715068837406
Ge 7.171560611378274 9.388182776121408 12.802302916990916
Ge 13.112663447468607 8.074973176170458 12.040252206942993
Ge 11.729795706894725 10.101463893738647 13.42829370710241
Ge 11.750931229420436 7.701690468454289 7.412569588147654
Ge 5.767855055476012 11.068947339672908 11.2962230860705
Ge 8.942407998611946 9.919320415462964 9.654785550145238
Ge 12.52821402850909 10.38380201263849 10.727532489510624
Ge 7.629226793662613 12.035992869518992 13.05138895268595
