26
Energy = -104.29971929 eV
Ge 15.130274376661113 8.770712522150143 10.959382508156265
Ge 16.103756636394888 8.414586160353004 13.38932798155816
Ge 16.584063743026217 10.841343500591286 11.987963583754203
Ge 14.554947919870733 9.227139525114367 15.344719354307742
Ge 13.450967968024296 8.296293006882129 13.05369072045822
Ge 13.716254518234905 10.801113119113914 11.461664005021264
Ge 12.843876852624966 10.783296452099139 14.13667485032086
Ge 16.817905492307293 10.655456915974316 14.68877682866362
Ge 14.987100003182984 12.173621078998673 13.795969677222168
Ge 13.584605896596388 12.59259588208577 9.629523035920176
Ge 11.04264975523659 10.156121497960491 12.101764475466567
Ge 15.411867607647162 13.209640970541464 11.281336564890243
Ge 10.298430660404966 11.03760400925984 14.500206445664732
Ge 12.666791638826554 13.911754037808127 14.121483836611036
Ge 15.534832033416565 14.712121360400241 13.36863022082029
Ge 9.991023297027342 12.550422227352385 12.104714396366157
Ge 12.248643709051452 13.748202711413118 11.462709578479322
Ge 13.648486805298674 16.278928121602906 14.775272252685694
Ge 11.09166510884555 16.15110382203069 14.259298527945813
Ge 8.04164465528171 13.263096716804409 10.529662266143507
Ge 9.936222864192775 13.776522970020553 14.686894717928253
Ge 10.459233473717733 16.83915336485635 11.745249660289893
Ge 8.619320449615605 14.806111332471174 12.769828214237835
Ge 10.210404996794924 14.670387243290541 10.058121886853646
Ge 13.197075245395743 16.06548253321061 12.228265681853706
Ge 8.091538528781541 16.08813776036165 10.705138852737791
