27
Energy = -107.2731969 eV
Ge 15.821461773073901 16.771060448983924 15.03684662462078
Ge 16.66235078961247 14.35593350157754 14.83134062984611
Ge 17.098686263978152 13.277262536486079 16.981277568178026
Ge 13.696547556075128 16.19904793678543 13.680533891585508
Ge 16.12736792183975 15.604572366201417 17.341914024993102
Ge 14.159497618131162 14.671423727154016 16.09705966640117
Ge 13.701230042345923 14.446046261760255 10.534281294327716
Ge 12.08752781293803 16.722967240259155 16.01483264977431
Ge 11.431596105992062 17.247217258242856 13.567404469958984
Ge 10.798013885923824 14.916547337052707 14.829252903538055
Ge 14.556236895886068 13.829007541448586 13.136753199167925
Ge 11.51300158292125 12.787121456592029 9.539964530628188
Ge 12.64851628534655 12.962111675688174 14.565222056709825
Ge 13.419183570521195 13.645421903696523 8.063851992372884
Ge 11.672994701774279 13.803712074379034 12.062707582380417
Ge 9.779849860449241 15.442659442164928 12.554804718859224
Ge 14.340409574971018 11.909130063018152 10.000364566632197
Ge 12.912407406208779 11.00460629906132 7.99088478100848
Ge 11.968581571096962 8.854358113044526 13.922393894784461
Ge 12.67656880698914 7.751207382678872 11.384066136829073
Ge 13.707016559694807 10.048992139336951 12.201809972480019
Ge 10.085288637455506 7.696154976042838 12.34649812333337
Ge 11.878772527764882 10.111079879070749 10.246326710813822
Ge 11.369722636068957 11.210547365381009 12.656233426503233
Ge 9.444824687674318 9.87253647477296 13.72122210507221
Ge 10.435320777118116 8.031252165116376 9.782272486599442
Ge 9.220518304980006 10.016406153400885 11.087190983440262
