23
Energy = -91.49269434 eV
Ge 16.830211106349694 14.245832985412559 12.814225361565619
Ge 14.899308484075249 12.801172564505173 12.036991548566617
Ge 14.648023547679554 15.358265999274549 13.557865427941461
Ge 14.006811058279549 10.757280326980815 13.368668988455473
Ge 13.777607032667303 13.428992896511422 9.718068031372646
Ge 15.474816616570884 15.28395926594647 10.878343977263267
Ge 13.569020364322052 16.833821260854673 11.767517094577968
Ge 11.734255479325563 10.9838250318563 12.086710609142107
Ge 12.97596817717 13.242321339943251 14.071162139736975
Ge 12.449168565718685 14.536521003511151 11.589853734188596
Ge 13.752786473899048 10.823892858109915 10.442610842604282
Ge 12.1024747580388 8.382555009541134 11.479478336042053
Ge 9.485639846202847 12.01939678066881 11.146701406205993
Ge 10.695580462514597 14.62456858729743 13.631763836941218
Ge 11.144074469559483 9.133131122320261 13.950849411976554
Ge 9.761500966548267 14.561238138939242 11.063505165439523
Ge 11.151374171882178 10.170370055694075 9.579748999034024
Ge 8.352416105024604 9.924636394465821 10.181793646977637
Ge 9.125296226604409 8.712377630457022 12.33116561969359
Ge 9.970697882657277 7.701269832349664 9.921007480604846
Ge 8.404204342878142 13.411162892252397 13.094885844381889
Ge 10.222525549072989 11.821097576596413 13.996196205141832
Ge 10.408836491538468 6.560297626834233 12.303875776138234
