21
Energy = -85.06295496 eV
Ge 13.684726224403574 13.172518202006813 12.754963057587315
Ge 15.51308667839338 11.228111061344189 12.521054450098436
Ge 14.384372339615146 11.668854106347723 14.938465600053014
Ge 13.23471704630285 10.616528660927692 11.480875472407323
Ge 12.070274456811154 13.069647544518473 14.821960307393658
Ge 10.45744336773721 10.058256263700882 9.02573365881159
Ge 11.215216518084116 12.51739543027901 9.181528528045456
Ge 13.119795182238112 10.436592958361679 8.898659453092115
Ge 14.180802423500854 9.22723429798653 13.649813448749182
Ge 12.024186929300337 10.353318661500245 15.204097063554302
Ge 11.596887420539893 9.009509400906358 12.94281747264508
Ge 11.291182759439625 11.665590259102505 12.869486499918077
Ge 7.816884831911483 13.329877240641338 10.269683751431863
Ge 9.191762165462707 13.750822507600834 7.980513599322914
Ge 12.017216929829923 8.353427083242078 10.211270004222916
Ge 8.00472835193858 9.420071254825418 8.178184707941554
Ge 7.038661459099497 10.792151798738596 10.454443118170667
Ge 9.58769986947584 11.641505424090502 11.045024084254383
Ge 9.104846565987565 8.914714913723952 10.89355111859251
Ge 9.637613161541003 11.299910161541591 6.929433987306984
Ge 7.173231237650805 11.926135087927536 8.056429840750985
