20
Energy = -79.64509362 eV
Ge 16.045915834191316 12.46153560126782 9.728710913877835
Ge 15.829626994170155 13.005248703839257 12.261564499832144
Ge 13.519081315428064 13.813243011928229 11.084008947990865
Ge 16.193616103372943 13.715198340495833 14.562494514963735
Ge 14.387951916520544 14.180580453393235 8.69110836712537
Ge 13.590828599679304 11.744245217384517 8.634095521139962
Ge 13.80117717581027 14.347284208583819 13.673706455647347
Ge 15.188121503085503 9.999278715235947 9.624004466746515
Ge 14.478797766974319 11.64262709669294 14.287258237502044
Ge 14.058127031969615 10.962269213136942 11.72601648508871
Ge 9.310141626679073 9.012029588779951 12.332222241603288
Ge 11.851231494951405 11.893655667970128 10.60363171607336
Ge 11.952062558518184 12.576117512421003 14.461966565518953
Ge 10.640739260326459 13.473166597256803 12.380927052943676
Ge 11.278131515714406 10.726083421654021 12.87550770123066
Ge 7.600273020337388 10.030358659521184 10.671634773411048
Ge 8.649512305385448 11.803363971756463 12.281948562132063
Ge 7.204235794672571 9.968611967886988 13.502555881265296
Ge 6.19537725377276 12.099990781763811 11.96645635447255
Ge 5.3761526762149705 9.601302396893598 11.822138182730615
