22
Energy = -87.87304859 eV
Ge 10.30751305331253 12.57748936202111 7.304874182106567
Ge 10.69969512080878 12.522069080204748 10.149064171611268
Ge 9.04769248578212 10.474687022099124 6.089585973594119
Ge 8.308236673706471 12.54898483932608 9.247730730557008
Ge 11.629096698337928 10.34213101976042 6.4035680655526015
Ge 12.614873644206414 12.03850546067245 8.324979616170642
Ge 9.969908046165294 10.23282702536596 10.8809864475917
Ge 6.493803184320226 11.085394456033299 10.243422584481769
Ge 12.58615665116523 9.353903259627248 8.746433640417349
Ge 10.994017616252872 7.862002439368359 7.210012856413144
Ge 7.769199171939365 12.945249901309271 6.692527224101538
Ge 9.085787839610568 5.181407203633845 12.935543398150076
Ge 12.198053857069155 8.876833642758452 11.61149161425238
Ge 7.830994602905742 10.087861570366531 12.569014836868377
Ge 6.962390658337347 10.592669902988012 7.725649885079406
Ge 10.351031808066574 7.899081486086398 9.678199011927349
Ge 7.860177052277166 8.713603847035053 10.047021304587792
Ge 8.186200004558103 8.297251616484814 7.321484069379621
Ge 10.240308491465354 9.292166928693886 13.380069767082784
Ge 10.829952028658253 6.80461617179428 12.255171461238403
Ge 8.548539708490656 6.133989330072693 10.541899813803232
Ge 8.117324808503446 7.54736889878582 12.896732899467588
