28
Energy = -112.06527667 eV
Ge 13.784818997295726 8.124843211434728 10.953789220054473
Ge 12.327140950219384 8.886635530689341 8.845223084010929
Ge 14.407952257488882 10.556011620364249 11.9040453823561
Ge 13.252882218477621 8.955222052246071 13.61549363326874
Ge 12.415806852514988 11.359870085104891 7.86501403848746
Ge 12.435228919120245 5.927379888761708 10.687229953825991
Ge 11.426561146222891 7.359735450496831 12.559088156339739
Ge 11.139531847763548 6.843786322342495 7.53211184034764
Ge 12.335061025678685 11.571457461091414 13.439746874813752
Ge 12.334582669096145 11.505200028732537 10.526837590768103
Ge 9.951199656069821 10.974406752100602 7.5937739562260465
Ge 10.459151851535728 7.661019424817102 10.06520850023772
Ge 11.798027779579792 13.807821187047518 11.875720245611085
Ge 11.644493974554011 9.13634199685521 6.226339420472876
Ge 9.580922617847154 15.079822948764262 12.46845771425465
Ge 9.599288738012595 13.131518350818402 10.518219991356926
Ge 8.408042832388539 6.926973328848164 8.541661353133028
Ge 9.104083131172501 8.526064818115923 6.582961103627062
Ge 10.588132044112763 9.522791884312271 13.949836145021031
Ge 10.273266173454848 10.395017061563902 11.552237870330696
Ge 9.722149134369543 12.608263326327485 13.477248371793637
Ge 8.718696557363701 9.571815970248949 9.33426099212729
Ge 6.457805588587508 8.948139716149955 7.896700963143918
Ge 7.220975492330111 13.086954177476374 9.475599820838653
Ge 7.389410334030027 11.405167581654112 7.2349300629807605
Ge 7.220605222571975 14.165236260123223 11.860869968092592
Ge 7.667110625042758 11.54266646125932 11.866504414660561
Ge 6.242687937466375 10.68490001676434 9.796011816115236
