24
Energy = -95.81529946 eV
Ge 7.9952804695676365 14.441013190301456 12.043462238229317
Ge 9.86482669377852 14.623038104676395 15.176223422334521
Ge 10.572319823227838 14.719115753977006 12.624920716701894
Ge 7.069285196697677 12.07613931058251 12.07833152942252
Ge 11.685401688555814 12.756171598296234 15.295229058016321
Ge 8.561472840241422 12.798627540289502 14.092820009146235
Ge 11.301772609377208 10.066074745583878 14.915431524589316
Ge 9.602061482103789 12.400235784010855 11.133070583995057
Ge 8.999449705401053 10.45698833181196 13.08840081448402
Ge 12.758273192165372 9.562274770947582 12.61332060501337
Ge 12.865307253887478 10.926689744446566 16.883478522012897
Ge 14.184674328401165 9.934181278796597 14.829472130211538
Ge 14.471749412274812 11.798888016077122 13.004063815470273
Ge 13.277706111212566 12.342047387270199 9.80055360041948
Ge 13.644968249006933 13.655250720286146 7.586366791078501
Ge 11.618142205413811 11.866030726453335 12.76492383866956
Ge 14.689399932120196 10.39385800968193 10.658952632230097
Ge 13.204295057381957 13.987690872918975 13.47663369415242
Ge 14.371627278787637 12.692875911711438 15.608670781524081
Ge 12.27996274266196 14.623324700736092 9.795502470879754
Ge 14.84909879883209 14.714658646264244 10.06625583147093
Ge 16.24419990166141 12.70995009765476 11.347299512459253
Ge 15.70798438641382 12.692046316456395 8.559211418366361
Ge 17.101729932474438 10.881356573416879 9.728329432719411
