23
Energy = -92.56449044 eV
Ge 15.493742399815387 13.48173077825036 10.243262001981778
Ge 15.750926804822907 13.875103664358893 12.941335577932064
Ge 17.629078843773634 12.41014338568859 11.707547756166342
Ge 13.878715982043632 9.253250418168271 9.494895120471956
Ge 16.61238532147882 11.637503337459451 14.109468025984402
Ge 12.979259602028206 12.805458549542093 10.793967400805817
Ge 16.270894781343255 10.872164432201592 9.821898011674731
Ge 17.07507406478899 9.821496674040317 12.18291871967196
Ge 12.367570617938076 10.426570969058467 12.075025875955598
Ge 9.8314155284071 10.078682329227709 10.553246396294425
Ge 11.952527553458538 10.84961211222346 9.348154699176177
Ge 11.848288466246915 8.358744219965958 10.697865647077316
Ge 11.263707267528961 12.623211464429295 14.802992510314319
Ge 7.324920635640706 12.738886034888097 13.403049720905083
Ge 9.728117784289337 11.733947630299214 12.59123197751225
Ge 14.986094034061898 11.431547393080264 12.099911015060409
Ge 11.261436715956728 13.810979520026681 12.435711079200525
Ge 8.831416088364866 13.733276739624815 15.670109298916866
Ge 8.651414971108265 13.798327305725255 11.33334455072735
Ge 9.949180420292699 16.044090356831983 12.132738917278557
Ge 10.726058004503336 15.25083639353059 14.659640731075507
Ge 8.914902428067261 11.213503535243794 15.013288673893012
Ge 7.982678503115757 15.260270537198615 13.666667880030621
