23
Energy = -89.99756963 eV
Ge 12.608946654409936 15.376192506102399 14.701518963891921
Ge 17.363126699376004 11.899747515090896 7.981008297460056
Ge 12.154142145951136 14.268064538680385 12.114324788941722
Ge 17.945647583410196 13.648082630632219 9.738821212312159
Ge 17.2667260128304 11.69018205432402 11.03217116312277
Ge 10.354216221895102 15.975081387682673 13.634349562803019
Ge 14.415381308267708 13.730874793481798 15.661627314922612
Ge 12.032202348829411 13.2862815255376 16.439220399584777
Ge 10.365528088834578 15.307343839553463 16.3317471806825
Ge 15.309763564104898 12.34623806509968 9.20855209310771
Ge 14.810807216283198 11.529951909476745 11.49879586644527
Ge 13.515833380160036 12.43375860539346 13.605097564011102
Ge 8.004224733355882 15.232183318021407 12.722121729033944
Ge 9.668970767996164 13.332385304784452 12.11205394174488
Ge 10.914120229765997 12.551758224982075 14.226623141034347
Ge 11.84906411528651 11.201023631145535 11.13131137792306
Ge 12.189247742989075 9.218781289354913 9.324025341916931
Ge 12.03306510371727 10.029533721393873 13.725924457904748
Ge 8.686194947341676 14.013483695468876 14.791846436326665
Ge 9.535566343773773 10.566074521521022 12.593261416976517
Ge 13.608946522920656 9.116919766766884 11.526845466540419
Ge 9.817844073206988 10.05352426690427 9.851789783868092
Ge 11.041966614679582 8.396305125533518 11.63319618210787
