24
Energy = -95.81262477 eV
Ge 15.510402641837977 13.466049798142347 8.941559457495003
Ge 13.881330614832303 12.040455094409479 7.506610818994992
Ge 15.617594742598527 10.960293326082214 9.291605783309375
Ge 11.779890194163364 13.09792723285927 8.990284811267644
Ge 12.776362111960495 10.636710869479584 9.929582474238769
Ge 14.017179316320028 9.50894529244837 7.966908243718229
Ge 13.974180668469195 12.663188852205126 10.900590589524711
Ge 10.076976033191178 9.858108610069339 9.991744501795432
Ge 10.24263540577657 12.598505809093782 11.117179417001894
Ge 9.221095531189691 12.261981034816028 8.643710814397277
Ge 11.92551182123062 9.902885239342462 12.355918013189097
Ge 13.489645839917404 13.95071804358574 13.010662917374333
Ge 11.796069011213802 14.662009898052657 11.109878795860523
Ge 9.339877580508874 15.267642152768154 11.754679044698008
Ge 11.755561175965905 12.145101899923656 13.542442642832297
Ge 7.950373764783714 13.792045163363278 10.193952835043975
Ge 11.158232656439989 7.9953731045866485 14.52880643003555
Ge 13.574237969818812 8.53776259940711 13.842047789385932
Ge 9.505864014819235 8.84465723895212 12.368321550566959
Ge 8.045580531774698 11.265624348249437 11.44708069381152
Ge 9.08550681140097 13.074725039790636 13.404266293135592
Ge 10.327926756411475 9.377807787216137 16.46947538785626
Ge 9.600391065340862 10.583247501908538 14.285354479731225
Ge 12.484592121895707 10.251752307792298 15.403369142761951
