25
Energy = -100.06826674 eV
Ge 7.394522297668035 11.7282111089555 7.526700215385645
Ge 11.137473887083797 11.677842490343226 7.1910407445286495
Ge 13.463851572727394 12.76202955803877 8.018047402809444
Ge 13.358122049231211 10.171971936036853 7.468330187882243
Ge 5.636736756925045 10.52000677640939 9.201103142680633
Ge 6.289861861444583 13.056207657957284 9.593610116500793
Ge 11.195955981160086 13.841279679950306 8.77767435646266
Ge 11.300521762562362 9.899661510997536 9.124708292276706
Ge 13.871894330263594 10.6815870584881 9.999177246887768
Ge 9.78762639043576 7.915639254836633 9.86742298615647
Ge 8.952661794423493 12.280268191391215 9.565122282760713
Ge 8.127063285633918 9.768744780489575 9.236618259653376
Ge 12.865607396544757 8.38625630698689 11.681172023693616
Ge 11.480723410126782 11.027725172688728 11.376230608329283
Ge 7.205138179072169 11.198668131081075 11.225304740452973
Ge 10.531740173635772 13.513527304568434 11.45032261122156
Ge 13.084892559217291 13.20767293279416 10.747280870903985
Ge 11.31904175439397 7.250717984522616 13.407563084006036
Ge 9.552127203117362 8.9367273757719 12.261441079438988
Ge 15.24470880404472 9.355579711429069 11.907258639301492
Ge 7.725903185213883 10.188519825847369 13.478557691098773
Ge 9.857765118057822 11.63924625981979 13.50040625725207
Ge 13.646287948758449 11.053582350390203 13.15707029415329
Ge 11.510566635114433 9.732688239327436 14.296899823597506
Ge 13.729076855995629 8.47550959373074 14.210808235419027
