29
Energy = -115.28221181 eV
Ge 18.734386674328334 13.076320476736328 10.478822980971685
Ge 18.020177802497635 11.474340518636426 12.395270295763902
Ge 17.12626368061751 14.30463091336107 11.906371793162222
Ge 16.36852052820094 11.96752066433204 10.069996920446394
Ge 16.907455853650855 9.664316059123353 10.934131645677931
Ge 16.130321838998565 15.23177013775185 14.04744983018184
Ge 15.457584499110963 11.591220363258786 12.72164596644294
Ge 13.883206313887177 13.020379303591644 10.86977510966427
Ge 14.005747787948879 13.795126330445932 13.669382451286934
Ge 14.913077173128052 15.45933667292433 11.492268147461482
Ge 14.721857874988705 17.280564228382016 13.241087465107631
Ge 11.296560843858238 17.347052156166704 15.688381687441169
Ge 12.55464942106302 15.912129811548494 13.856741760804306
Ge 9.850711755644722 15.880363625451261 17.523080623670765
Ge 8.835360954344145 16.204292799447494 15.225073176570293
Ge 14.626866224949472 9.146562483124642 12.569551167506622
Ge 15.887522963727562 7.424863517852288 11.446813287619635
Ge 10.265833314401979 17.312022505162297 13.167251264362873
Ge 11.26966062068795 14.549494634768918 15.940779592399899
Ge 10.998446742993192 14.980817390785818 11.8665393301035
Ge 11.72514093219935 12.445579539665351 12.824003175983865
Ge 8.357021578835036 15.470501278839516 12.68128028712828
Ge 12.689931554344454 12.00946155890066 15.337897675671561
Ge 9.687905263766698 13.822087547316999 14.026868991005854
Ge 12.793207894473504 10.512817273294147 11.149845202196158
Ge 10.158267230671672 11.306909801876506 14.808821046191332
Ge 12.466504520689288 9.769108617186687 13.90320337965625
Ge 10.332573354837718 10.319608753781933 12.076545765315629
Ge 10.087999649727251 8.797543294446026 14.125806862358205
