24
Energy = -94.25404437 eV
Ge 13.83444831660745 10.162921821855164 9.597008586974649
Ge 15.41218272740774 10.97958041348915 11.379730951724852
Ge 13.555121994977434 13.815393049850647 10.49351457089884
Ge 15.519325586172457 13.553369218049518 12.036481917120824
Ge 13.106450098177454 7.749659667829934 10.029857993173765
Ge 15.463374362109276 8.068089576623189 10.728751075892744
Ge 12.386649987445962 12.209049027167257 8.976417862961195
Ge 16.337339468545697 9.119910579875473 12.795736454105482
Ge 13.220234913133108 15.246028511938892 12.903879125821438
Ge 11.689294202395935 14.42252545437079 14.887521664351802
Ge 13.554192433123598 9.092620877943176 12.368135968925426
Ge 13.421023622976332 12.544965192409544 13.513969396523857
Ge 11.42728517726971 11.900538559667966 15.388121083099149
Ge 12.228515205767946 11.461494502037992 11.470983900631762
Ge 9.891816740797385 12.90964440801092 8.698679109756862
Ge 11.639388345762535 15.567165578590524 10.78089002248535
Ge 11.740091455182869 10.235189139232215 17.11252546746526
Ge 9.518503896787148 10.681359671577475 14.368475512537369
Ge 10.525464730101957 13.952123140997156 12.68026604340739
Ge 9.213212509050754 10.610111785593942 16.782347056127644
Ge 8.04290377092748 12.22265441798362 10.307708756869705
Ge 10.23202628497692 15.465187082401815 8.541541992003477
Ge 9.788042449283342 11.552585289762838 12.034870094201429
Ge 8.975039716057612 14.649843315794424 10.62572216335576
