25
Energy = -100.12484875 eV
Ge 8.873079560570696 10.136457351353153 6.535083261883786
Ge 11.635720625516024 10.673751567242453 6.661215916884035
Ge 10.639449123736386 8.295481757807988 7.370738447249335
Ge 7.602824922077332 11.804578788585355 8.48858005648601
Ge 13.193719660762694 8.759162594565707 8.096179300733862
Ge 10.067226667005176 9.641832489971003 10.040221244731786
Ge 9.726616618550974 12.644227107487259 6.996234060661609
Ge 9.184388684120856 13.830969063061891 9.323923087995196
Ge 7.797379617202061 8.84356055666597 8.585309895796126
Ge 13.620591424785715 11.408720556570204 8.401599153334278
Ge 11.897282801996335 7.516030497860415 10.041920638239095
Ge 11.097472475978355 11.891371162709278 9.220203552583248
Ge 9.402202321116734 6.664546363332173 9.184315849669265
Ge 13.262164801308685 12.509982895041121 10.802282678550016
Ge 8.807348089269235 7.419307980820483 11.604787219841008
Ge 13.665215188951978 9.8504014013979 10.669211628760822
Ge 10.684329607594048 13.324759313393164 11.64388257434928
Ge 7.452453520665972 10.076498580041015 10.904148198918579
Ge 11.460752099332227 8.793158530615898 12.319857316879203
Ge 9.611399197485184 11.01318076198877 12.541768904436037
Ge 7.021050997732329 8.572727674931786 12.976839054722973
Ge 7.910411736381016 12.624768778369189 11.314185898126745
Ge 12.210452511088537 11.243062219732886 12.869847160173196
Ge 9.758693582656091 7.694073278018801 13.937793630838767
Ge 8.553478539434007 9.903093103755022 14.605575643474431
