22
Energy = -87.78153602 eV
Ge 9.620855938946521 12.976593622683518 16.051905194227604
Ge 9.924268455770582 14.04592702485289 13.230716541749556
Ge 11.887536527801654 13.22620081302777 14.584140252924268
Ge 11.825294295923356 11.477470765663446 16.613345329166805
Ge 9.303107745133845 11.64633831766078 13.775454779384019
Ge 9.452609796481713 10.292996948685408 16.089775190129703
Ge 11.615711564239314 13.34293348397379 11.243546255208777
Ge 13.024471623776051 15.595189691635996 11.632419399277756
Ge 13.667180575959362 11.311483093536545 14.464836792157456
Ge 13.361351353178089 14.814532327551461 9.02123800593936
Ge 11.589677035547387 9.699655440260505 14.579667838558892
Ge 15.387081694832936 15.598744343624915 10.52588429258033
Ge 9.77372045843634 9.364135915391598 12.789133144073416
Ge 12.613283049899454 11.051293837243206 12.033200588362531
Ge 15.759589073807922 13.471879080763204 9.082547064968235
Ge 14.533126621565797 13.355256453313485 11.649420971113921
Ge 14.019977769721173 9.573308519319468 10.409354142369835
Ge 13.716565051172138 11.930112505752906 9.426916352123758
Ge 11.538921379120021 8.80063690582754 10.740519690878624
Ge 10.034586519602593 11.014316223084199 10.375462428393812
Ge 11.20600425925417 12.82811762980099 8.71769326518819
Ge 11.868394403716763 10.213888786333904 8.500494389768992
