27
Energy = -106.99876312 eV
Ge 16.39965201531895 13.85423592106327 14.292758098912719
Ge 12.590584347246148 9.427927825400094 16.028312838963124
Ge 15.783271249846342 12.6254894109444 9.67784812402888
Ge 11.000316841064308 7.505330119796001 14.982543367134266
Ge 16.788517901734465 13.889553604355578 11.585601630791619
Ge 15.25203568977442 15.148304819048933 9.753851844418662
Ge 13.58518677033101 9.51509471057522 11.485148020324305
Ge 15.199051109139072 16.275901986619004 13.627803359664332
Ge 16.68320040508145 16.47481807717721 11.480403578827945
Ge 12.148973140711071 9.224831781768362 13.57948980224777
Ge 13.946321933710063 13.800221657006245 13.53013837670728
Ge 13.06610991326197 12.525923289162662 8.957678092833211
Ge 11.48884723162043 7.718301192181472 17.3588123540885
Ge 11.754707211543185 10.267435081942455 9.76524831395108
Ge 13.485906546936826 12.031233848436008 11.544184847171104
Ge 10.913027234400506 10.93208563312182 12.181199708545817
Ge 13.014056688942448 14.719577768894231 10.909215963993217
Ge 12.084043887013006 13.837131017093807 15.393140458893685
Ge 14.517686207226674 13.206853331069789 16.29651571178783
Ge 15.900528585831692 15.692556083595413 16.19938220362863
Ge 14.059177921746342 17.596819521551218 15.655705778767885
Ge 12.55079703248673 16.066893562848396 13.675687039928965
Ge 10.725109316711588 15.485381658501797 11.776947126219202
Ge 10.87815769696144 13.04128546376365 10.393828057775822
Ge 10.44311649321865 13.28001611010451 13.175623624617678
Ge 13.555894627280736 15.48490574935843 17.33051871322736
Ge 11.534669925721953 16.441658737884236 15.975616437726785
