23
Energy = -91.09878217 eV
Ge 13.05033671191188 18.04536959122691 14.619810538032404
Ge 10.921129842228154 12.97932185439337 9.716714942566952
Ge 11.275658396939207 16.154117644174754 14.499351338992236
Ge 13.141627938505575 13.562136112958076 8.63703043872847
Ge 12.98762755256376 13.510934302990787 6.183183924711354
Ge 11.671884829234145 14.360302515461063 16.45216371470382
Ge 14.159105651087998 15.859069839987415 14.014799780714952
Ge 13.262997996023273 16.49517436545144 16.578801532328676
Ge 14.487885927694613 14.146260120388655 16.010668665722637
Ge 10.783184614584052 12.773482452550798 7.184097898161146
Ge 12.383747947709656 11.017151542690577 8.063019051179333
Ge 14.48390230546215 11.128233458126891 9.86824870127943
Ge 10.922577932942094 12.093417220043689 17.145645865961843
Ge 10.473211033217463 12.423133411560352 14.54900711168563
Ge 12.53535865952527 13.724565516786678 13.754086060705763
Ge 11.03692544198592 8.45580855936023 11.515844913121473
Ge 13.732185067337998 8.78889401391982 11.057152673499576
Ge 13.687158261281995 11.967162941783577 12.147709378996218
Ge 13.07906215478284 11.924171931844542 15.662598929446466
Ge 11.779102093746056 10.75880374961445 10.740211621960464
Ge 14.447984761153663 10.07827328116396 13.740557633004673
Ge 12.833242882348504 8.005389708941584 13.40963210863709
Ge 11.730167172951937 10.379012473438602 13.407967201397685
