27
Energy = -108.17190778 eV
Ge 13.966354085752993 15.550528824765275 12.365308790126532
Ge 13.908173929988285 7.905029341194539 13.822647256996115
Ge 12.902619428274079 17.54877633606653 10.78031799710711
Ge 11.493480114019675 7.053396885359399 14.7621011585298
Ge 11.642003520806513 16.738484171235143 12.97721713820268
Ge 10.387913115176794 17.0529084532626 10.49493460282513
Ge 12.579811753165824 5.8717327579879806 12.640409180336496
Ge 12.091445671550408 13.805845927337176 13.018486271415183
Ge 13.693887374589718 8.143807910705977 11.242365917691966
Ge 9.79807833786889 6.738618389981066 12.761510605569192
Ge 12.226681707544799 15.004592399448873 10.461241155113326
Ge 11.278598667650568 7.285246762965631 10.719819904017237
Ge 12.415858460741456 11.774649602200679 11.074035410413227
Ge 10.08099377599538 10.81197561018004 11.960066284986688
Ge 10.037576384929405 14.860764679210726 11.860295540744188
Ge 11.608477174146309 8.826808836792472 12.83218316592437
Ge 12.133016101134103 10.010016578112026 8.940726606756675
Ge 7.93267637456478 9.076906922174262 12.214663985014038
Ge 10.424925257887637 8.147048753622686 8.476893625475121
Ge 7.8534621184018425 11.457383165143197 13.247246993823195
Ge 10.016111683210376 11.99924069983513 9.142465155756408
Ge 8.889352647688241 9.723031282962285 9.879442155774885
Ge 14.471816478294448 10.676094909851603 10.064549122912723
Ge 8.590197328728665 12.911194774161723 11.118721928341207
Ge 13.901171480259764 10.990141250810197 7.471069334473351
Ge 6.723571645274999 11.030593449893477 10.745717380380434
Ge 12.570092295909468 12.84374358163088 8.723713471093232
