20
Energy = -80.15367324 eV
Ge 8.296151250699438 6.442135575797833 6.075599929785271
Ge 6.835797617250563 5.7279922254828755 8.130658183734667
Ge 9.593845469858651 8.664449258332283 6.5821283579180845
Ge 11.211703222929271 10.495189044425757 6.365000260741654
Ge 7.968888412055582 13.130244584613074 9.128445155907109
Ge 9.308996098040668 5.115663198166756 8.203942065371814
Ge 9.62273181867055 11.37566989610023 8.24735156278848
Ge 6.677078938522812 11.090044718860794 7.940613211282648
Ge 12.277078211746783 8.433638499704488 7.733924307523051
Ge 10.903243186544065 6.196441756064204 6.477468268280453
Ge 8.33429439741165 9.158910901825484 8.806510417521542
Ge 7.828172495073432 6.919691166861754 10.235939984733216
Ge 10.284962910613347 7.352624220084067 9.206629945291851
Ge 10.156458802193729 10.354641515001765 10.527290150957084
Ge 5.981035370855683 9.250409423561283 9.880668699550114
Ge 12.043615211494728 8.637313620570843 10.52694964336058
Ge 9.785359035354354 7.8450407632508155 11.929782689277333
Ge 6.33135154889235 11.765351969607195 10.599064659921911
Ge 8.836195244047149 12.299561143521863 11.59995357305581
Ge 7.846895114463109 9.868840874883738 11.925933289714672
