21
Energy = -82.88625722 eV
Ge 11.552456854542866 10.563157224731082 18.562752072760066
Ge 9.236927344566205 11.148524874074255 17.719394471617196
Ge 11.076633039839715 14.128853278860921 7.150340408691699
Ge 10.690862010326057 16.703602060529533 7.813968228678872
Ge 10.753086013748824 9.885488247892836 16.07933308522098
Ge 10.99444346962673 12.720714080808595 16.66178815925479
Ge 12.043976438225773 15.952615088732262 5.6631156883927165
Ge 13.061469586557179 9.015846442002887 17.16582276831924
Ge 11.78061113027684 12.043583625464533 14.286639026538602
Ge 11.34530620301165 15.099186889128854 9.636058827495674
Ge 13.401471295837004 11.590772941702586 16.7135364097137
Ge 13.264984814402187 15.958153298756324 7.9283844248965405
Ge 11.691570361589104 13.599121623740261 11.867869400229585
Ge 13.26033067260601 13.440186014274326 8.29392997605668
Ge 14.091811541207708 9.934892131870887 14.597624816563883
Ge 14.271741238126943 12.697884290507902 14.569388271945526
Ge 11.92754203017767 11.520673151898272 10.237549095201581
Ge 14.136977374373743 12.996230847714308 11.227329218529379
Ge 15.64715169404206 11.326868078913474 12.83349168164222
Ge 14.355869033083168 11.421157880007067 9.152937309834233
Ge 13.075248417933057 10.652389229732387 12.345934390926711
