23
Energy = -92.197216 eV
Ge 9.578508195755438 15.21427209126804 11.083928147085546
Ge 11.742563684127509 16.346953195888712 10.345573700744223
Ge 13.457344206470179 14.987952433276257 8.935515159619227
Ge 11.038263399112314 13.643093090624662 9.785076300221933
Ge 11.491324191016751 14.884016400779503 12.77991990425045
Ge 11.987256448639142 9.999078588963922 12.646025505405419
Ge 12.96930196800191 12.307419107972322 11.294575776719942
Ge 13.679915326475044 13.487054800796992 13.338716418716185
Ge 12.977694481753359 12.374907382849715 8.838186295330793
Ge 15.574551540850639 16.531862353610887 9.853662518501341
Ge 10.38280240850881 11.026824941444902 14.57869654116292
Ge 10.184058665378444 8.451184732264824 13.959483959243812
Ge 12.648793931080824 17.499011519866126 12.740862887932126
Ge 14.063764995413905 15.300644266805275 11.617140712639449
Ge 13.447604883012133 18.34494296955425 10.225452609982678
Ge 15.133287432304359 17.64905355197029 12.199072314152902
Ge 13.0028034519209 11.064220017900974 14.833545348367888
Ge 12.670568011199633 7.447530939473673 13.274585633352547
Ge 11.473707216732619 6.733984357957853 15.60492376820771
Ge 14.488571463481144 9.368491963925972 13.47260664591944
Ge 11.080321276949858 9.22437572550226 16.38366384787089
Ge 13.677842161131295 8.154503615426767 15.66477559336316
Ge 13.302221421117759 10.160584806448794 17.17164822860886
