26
Energy = -103.34049904 eV
Ge 13.97868039971013 11.352596472396526 10.65160488996213
Ge 13.89634212172804 9.119153126469111 12.32927090557908
Ge 11.442965241831704 10.183312644280818 11.100249734035158
Ge 12.129944281216883 9.805920278954371 14.108938571790365
Ge 9.927261506950254 11.576638563283804 14.45470130480443
Ge 13.192324777338674 9.000092425133069 9.545603170621726
Ge 13.17565606165098 13.260104479093926 8.431538883370598
Ge 10.747604324625833 13.820207360588052 9.17018310107111
Ge 11.905600722442376 7.504203618802527 11.524813878149438
Ge 12.364345687901828 12.15113636541208 15.097954441668058
Ge 11.454699262597178 11.594020497256507 7.558100773361882
Ge 9.777048059409024 9.050763142724287 14.791552464955277
Ge 11.159567848056094 9.045994437114615 6.960738410968546
Ge 9.636107051536294 11.310946652667296 9.529519921387802
Ge 8.139891341455414 13.016483777201001 13.29417835312628
Ge 11.301720933202036 7.258152576706143 8.940211636478454
Ge 12.421182828187437 12.246854784509946 12.537216650539134
Ge 9.041248449323115 7.049297829029384 10.469704157065888
Ge 7.911141635982291 11.058258494509948 11.631780005671894
Ge 11.328922010493777 13.988733621015452 6.491264677831993
Ge 9.098158917198162 8.992042823967031 8.586001219687219
Ge 9.098649510607972 12.961738552789242 7.212047964185876
Ge 10.121006233600031 12.968279221142607 11.686505483597545
Ge 6.928490480080188 11.03112447835658 9.281651204115425
Ge 6.9425102993363526 8.472576367278531 9.874423731054835
Ge 9.32504948199739 8.974900624520457 12.27659930235133
