27
Energy = -108.25892774 eV
Ge 16.969629174722865 10.325722854215192 12.321398514804436
Ge 16.560894758388987 12.832864360988374 13.338062927015109
Ge 14.701524416880465 9.086630832394238 12.373726534826034
Ge 14.94244864901552 7.364321384643405 14.259844190585763
Ge 17.01117983121612 14.757544083557413 11.466280990713884
Ge 16.173068010173385 12.351909913057918 10.441872376352146
Ge 14.167993665007387 12.52550514797955 12.411437644030498
Ge 14.455564509284827 11.282556792989409 15.966243720057749
Ge 16.033189253883812 9.696332770029326 14.669676080831659
Ge 12.627263554606783 10.437609808814553 11.608136713671595
Ge 13.299996525710728 9.201434577722024 14.975526464201328
Ge 12.312510351243311 11.418091042773751 13.973247105205829
Ge 13.620945838257176 12.435315649714338 9.831588565694554
Ge 15.092960987570391 14.737009024371929 9.490550196258777
Ge 12.747560563959148 13.382277965241107 15.665283327399154
Ge 9.055076236886979 14.846594465977807 15.245276753670097
Ge 15.310141589755233 13.892712680308087 15.643395972252598
Ge 13.022769501989094 14.662789014111826 11.33657905417275
Ge 9.613124601781932 12.86601377453098 13.256867100597079
Ge 7.285063569234759 14.24977936264575 13.312033110083593
Ge 14.920790720298587 16.59922377393973 11.338790494995104
Ge 11.417787912463568 14.747583522291936 13.791980556536053
Ge 14.89110662161163 15.028469150034002 13.318188193556862
Ge 7.717890671285799 16.825174171872575 14.047660667678372
Ge 10.511500495711335 13.950776034240562 11.049911861503809
Ge 10.346856368028412 17.095809036838926 14.372660228669943
Ge 9.252380713745858 15.773826933545696 12.31084085912388
