25
Energy = -99.97410876 eV
Ge 7.199645808506396 11.040551470736865 9.903668039523822
Ge 9.597821728446633 12.052451475213926 8.750285003117503
Ge 11.209995647032475 13.60654027822958 7.390914266387267
Ge 8.484254956531828 13.8073696870454 10.3505796283354
Ge 9.806943209044585 15.482868859449336 8.78045914532664
Ge 6.8581444926383295 12.643633630492031 11.978622544322109
Ge 13.953690269217788 10.428719527179824 8.73679764161727
Ge 9.9971933553148 9.921393462667265 10.077751592093911
Ge 8.054874822214863 8.584098412406702 11.081801404082452
Ge 12.408765092242783 12.349519215733173 9.391038309465193
Ge 10.504376548541497 12.48073715613657 11.362098865259403
Ge 12.181324127190182 8.660574006679383 9.7000599777432
Ge 11.964940517109586 9.703810483712392 12.201805599367894
Ge 8.674073120199445 10.956099230134344 12.472240410325123
Ge 12.062743019848481 6.821097714421148 11.630469018329123
Ge 12.750206630782865 13.646015231964816 11.703902476427036
Ge 14.922965990540494 11.758285082343523 10.983058429033692
Ge 10.566168378218801 15.372751990303716 11.375761049163588
Ge 13.702923251759646 7.791260305248541 13.537295924527267
Ge 12.367547752726892 15.07222057454133 9.435333943341215
Ge 14.465666320836933 9.052778611917594 11.041759297734252
Ge 14.100986031579303 10.566626041430887 13.22532602492786
Ge 8.569469668235117 8.708949617805372 13.727096183710293
Ge 9.523855300439939 6.57247964453813 12.277720139582735
Ge 11.09484718695048 8.005852888390212 13.964976091544195
