29
Energy = -115.42674223 eV
Ge 13.749894449277754 8.473367020195838 5.20262457440843
Ge 12.551687784895046 10.219990785468168 6.808346084550179
Ge 11.303378162385712 7.8619738995328 5.732109677578623
Ge 13.872770391723195 9.644804229002379 9.034610267549104
Ge 13.312310079254832 7.496697440316722 7.485240863837765
Ge 12.65201871611447 7.029889905153027 9.971342472505162
Ge 10.87723708585646 8.659525475994272 8.072250633189835
Ge 14.411673156735203 8.377176974241753 11.275287134489338
Ge 11.923700925927914 9.692766362412128 10.863133572782873
Ge 12.822746418478713 8.747330635664232 13.283360522979295
Ge 12.955942122982847 14.764143626460324 15.524252359153904
Ge 10.12268806686808 7.494100458643588 10.249154852830124
Ge 14.252595007365827 14.324743534315441 12.896775676333053
Ge 11.022021812224976 14.654403836127333 13.554343875853052
Ge 10.285844261248988 8.664246607929561 12.624915209973086
Ge 12.044401343064438 18.56832818969339 12.375294338128377
Ge 11.000967605368096 12.20785513927518 12.034389564745998
Ge 10.827653324297415 16.585317948082235 11.340188257176388
Ge 12.247473628152536 14.292362743905768 11.225358029567056
Ge 13.210985162397623 16.629502221865994 13.590336785567004
Ge 14.557466989087741 12.766477118092144 14.850486436113146
Ge 12.78598593193323 11.293313999953602 13.673166382997483
Ge 10.576728778064705 17.367519117840683 14.055009544699294
Ge 8.822992432817703 10.974152314255837 12.695973737897159
Ge 8.76213123337016 16.015551518761864 12.878272382044027
Ge 10.502041027578938 13.622726051246863 15.98665781386855
Ge 10.248039474455702 11.046135372640084 14.882505471040908
Ge 8.685604277913596 13.348186505980689 13.977854581648318
Ge 12.232033465183674 11.614329148764218 16.28501553221315
