20
Energy = -79.87329663 eV
Ge 9.475217354147311 9.88641490669774 6.586569751534968
Ge 11.918646239455164 8.616161329359182 7.176565121611709
Ge 9.143917076467943 7.359443942097101 6.81091758745067
Ge 8.719364588999746 11.323184694844949 8.69524953050363
Ge 6.788797966591634 9.269226380543774 9.636234026606852
Ge 11.750798677703788 10.812216936847166 5.867297933394716
Ge 10.89882667923984 6.870534118666426 8.871946571916133
Ge 6.752111840635627 7.296546970586866 7.986414510669784
Ge 11.497904214586065 11.1831703216407 8.38723553764201
Ge 10.569299129142287 13.162888739875717 9.72931714506159
Ge 9.579445358970395 9.235108834567823 10.012059393777443
Ge 8.530069969231317 6.71946996654931 10.029689330771452
Ge 12.220040161633094 8.937537736263767 10.063064182755555
Ge 8.695050187591509 11.379676905681416 11.395362909852013
Ge 12.651191018337924 11.55171466527193 10.737168661387576
Ge 6.011834691384656 6.651476121277494 10.344035409269237
Ge 10.802708281268105 12.460176482984467 12.316909237188325
Ge 6.352465435035944 10.310684195209255 11.896721820971264
Ge 10.778426571387827 9.73806585090777 12.326430930091167
Ge 7.943786875031885 8.316203216969832 12.210712724385804
