29
Energy = -115.37331203 eV
Ge 19.358243827188705 13.528593587753436 13.129359434751024
Ge 17.78460532263289 15.182946120936137 14.317741785478411
Ge 16.897973347697025 12.768449442959945 13.523288907458362
Ge 18.60305862716339 11.5218558803833 11.805013911035934
Ge 16.390879110597325 15.189108259007197 12.208724371679022
Ge 16.921997910176188 13.108548155778083 10.839105905487141
Ge 13.919071824332006 16.145141571952408 11.855700636927752
Ge 13.023389792514493 15.635317297001302 16.675469030404326
Ge 15.339607927188782 11.869085626612577 17.00840121182175
Ge 14.48552919771217 13.590063664590648 14.993785394058966
Ge 10.463635346257417 17.39155863178508 13.50459344545345
Ge 12.553857147326289 16.123103872348928 14.171275224700583
Ge 15.36916837703959 14.500469434252375 17.260971199550035
Ge 13.015473017962506 13.110082524638969 17.652126749410208
Ge 10.667990878247368 15.143415395792594 12.252794403965305
Ge 14.053835181534136 13.594796425832923 12.149025439208659
Ge 13.26683492797422 14.514927333111709 9.697606420007768
Ge 12.969303125731496 11.316340982004542 15.540955109962495
Ge 14.606798744068566 12.266278973079453 9.832236803555402
Ge 8.838620534052017 15.666594612178578 14.47137475031686
Ge 11.696374748533012 13.694605383888751 15.211184461935268
Ge 8.486968455534916 13.740501946507807 12.912377873342056
Ge 15.52137546682242 10.775357154811573 14.525188312619784
Ge 13.577175184382545 11.110554031248425 12.63853295454557
Ge 9.180231109412542 13.372637716160275 15.635864748179714
Ge 13.136530926392355 10.228433989297512 10.246239079694595
Ge 11.7849979439276 12.467613229015402 10.215001607021726
Ge 11.193057858020461 12.484253821656866 12.740032434248885
Ge 9.054481539164252 11.436523492292332 13.811342959155526
