28
Energy = -112.34772652 eV
Ge 14.878780723490786 7.965986660431032 11.74136399297823
Ge 14.568642990991316 12.18675538426497 11.213443444700731
Ge 12.763464706586747 13.357430769799379 12.939104443855108
Ge 13.956268054809147 9.560702631855255 9.942401268401678
Ge 12.624316245175281 6.874518658279354 11.084717815827505
Ge 12.676533937265303 10.57773968238774 12.066824000798677
Ge 13.018264213376725 8.381855909262915 13.456485867994786
Ge 13.685029915709636 14.67699405005303 10.715115303001934
Ge 13.555641891677135 10.444815200408868 7.52912677611245
Ge 11.14087896592999 14.835435446117362 11.336670842533685
Ge 13.181668044634145 12.51705039876894 8.971607042417181
Ge 10.710780579759888 7.595634893708359 12.612905372228377
Ge 11.378314553512634 9.044290198828715 10.210879181843595
Ge 8.854042129325867 8.740799763750061 11.07655300761656
Ge 11.827960099851033 14.678292635529777 8.709666888449908
Ge 7.596127368206667 6.467005947927444 10.497531923742423
Ge 10.577618474580746 12.160926298867548 12.051945131831111
Ge 6.116775619178451 8.22562969531191 11.8574640320831
Ge 11.045671817633893 10.181738457367985 7.95957387479482
Ge 10.510188299140298 12.581454547548907 9.54205645565738
Ge 7.402546230701734 10.771821637580599 11.699179233700908
Ge 8.63333107907546 7.798060198167092 8.541650285271048
Ge 8.619226246268118 13.957523661191749 11.07540739126373
Ge 9.090347675534993 11.755423400783336 7.520599291757158
Ge 8.377863192152335 12.489687573598502 13.26070406160463
Ge 5.337921421806591 10.40642332352212 10.36127250853849
Ge 5.877362848899595 8.121879510298612 9.08610980866678
Ge 7.703010048101636 10.19754086799131 9.02036497324757
