24
Energy = -95.57526071 eV
Ge 17.226693634409344 11.750332792140556 10.484409013702457
Ge 15.623621457485593 10.452785978407952 11.944191097073505
Ge 14.981636612762292 11.615261466586333 9.308502459261867
Ge 15.56633180329558 13.198359722337006 12.02743555221151
Ge 14.749267608854899 9.076599485961236 9.981223598722282
Ge 14.716971506859045 11.999633970026553 14.29807334046779
Ge 14.03331395414325 9.819199882255377 15.56022863855744
Ge 13.247155371581801 12.183136923655791 16.717517463462254
Ge 12.649217940600021 10.117315307006042 11.045569296715735
Ge 13.336399708888987 12.586960824250582 11.039722001696616
Ge 12.517296207676017 10.623077898231333 13.5706985883597
Ge 12.615913991987616 13.653052952804229 14.23920146406112
Ge 10.345548827827407 10.84242590683825 9.970572024399255
Ge 10.466984865758489 12.022611347141538 14.113552321263963
Ge 7.933735561298448 12.665929551141476 8.738656290918428
Ge 8.978140891555132 14.87884617895413 9.524451727344479
Ge 11.425638116914586 10.297924682339525 16.15563939618276
Ge 9.268801976541154 10.830007228822017 7.692383757833214
Ge 10.61762341508702 13.107418243241534 8.24993004579001
Ge 10.909911712666238 13.305685828704586 10.839164783723758
Ge 10.858061171885884 13.078941582373217 16.329915496020693
Ge 8.998488746959653 11.631359281318716 12.074607499743255
Ge 7.203494207698618 13.211764913466425 11.235564054172686
Ge 9.179957922480689 14.540000263473045 12.273495020290841
