21
Energy = -82.32661101 eV
Ge 13.683141362180113 8.62250401152339 12.760018334676538
Ge 15.335726593069538 9.851133843550643 11.145405617138758
Ge 10.866598627783763 10.168590845504596 15.277548852497222
Ge 12.058401508470602 13.68093491269867 14.828579749819381
Ge 13.066440287360534 11.060315803021954 11.347052191401206
Ge 15.441690621849224 10.156050381117756 13.870147039407302
Ge 11.081997011524148 9.605977644701747 12.75660308238925
Ge 16.167207895186948 12.062400817864608 12.306670934323037
Ge 13.041752265494484 11.162819538605058 14.389753658220316
Ge 10.072887516332498 12.162720815681604 13.932483027250349
Ge 13.809800256782726 13.103182383884166 12.700738282107375
Ge 12.82085792935171 15.535021370489009 12.775184213152732
Ge 8.216568737488695 13.366773254098916 12.550394248883768
Ge 9.220327336665376 11.058957293850783 11.462353776818285
Ge 11.177672890039528 11.349190815523025 9.70515330829589
Ge 9.605513229086984 9.76151219752109 8.436272360022103
Ge 10.559696342446879 14.480677486859923 12.586551106535568
Ge 12.353145226193842 14.107233906789762 10.480999330890926
Ge 8.6563885475965 10.681005573660004 6.399919695430395
Ge 9.730822224900777 13.531010464522607 10.198055515291214
Ge 10.161690450768678 12.247286808746074 7.522837395293224
