22
Energy = -87.01311611 eV
Ge 14.167481451653666 10.983300920235076 9.709455808704286
Ge 14.378059969166626 13.491295539841346 10.37296024072201
Ge 11.752648804598792 6.586903524825651 13.813154885646457
Ge 12.806327137626393 13.412018938262273 8.330083141533116
Ge 13.099272004638653 12.017955815266722 12.145161460734373
Ge 11.901196761957058 9.983873807071594 10.49665268979056
Ge 10.243630149877593 5.979827115680343 11.285941885199694
Ge 12.201289783229615 7.662586368513088 11.662671879430704
Ge 9.542486685447738 7.64105102409175 13.189956413141367
Ge 12.053346531715425 10.897048951941322 7.896219457190681
Ge 10.208715275750327 13.19382545879369 8.746134671159938
Ge 10.575152964834647 8.789669423183362 8.014726615483061
Ge 9.664159523233877 8.3608031963386 10.430782434256754
Ge 9.371815451754413 10.955105581549995 7.256330696547405
Ge 11.909388937817502 14.249890356960014 10.916101448272732
Ge 10.437084079281291 10.132679707947517 13.214437823666643
Ge 7.7746472302360825 9.585196028737323 11.836574154692526
Ge 10.513384927105895 12.08703329200883 11.178972523270593
Ge 8.282831087397533 13.815009626593326 10.853885924324107
Ge 8.402458719699853 11.13380265375153 9.598097282023755
Ge 8.533326982815415 12.015226806348592 12.917497937265775
Ge 6.5084955769674275 11.936393199107776 11.014094310497216
