29
Energy = -115.24036614 eV
Ge 16.12379659211731 11.130650238842804 14.151912386950348
Ge 14.580213426292664 15.612239706430849 13.922859867241893
Ge 14.830359364034821 8.770218527497095 14.719590764272498
Ge 14.361161910788088 13.012255715493607 14.556899364609182
Ge 14.369584930009145 11.007963825272984 16.22293822935834
Ge 12.129144096493889 16.400782668946636 14.725735586073814
Ge 13.985510489711515 8.073267320851006 10.262813374319878
Ge 14.425889928823139 9.657316719063708 12.31583652103767
Ge 14.82301474638783 12.205413268626277 11.981095945040282
Ge 12.601445995901171 15.050868021668187 12.465608458498544
Ge 11.962340440634753 11.764142083956958 15.261574754716582
Ge 12.29858463782842 12.487937430730934 12.635498275435472
Ge 12.292711452194583 9.152435858403651 14.293045702077857
Ge 11.929786447581561 8.244581702452205 11.874695799676463
Ge 12.47986380026289 10.431501834892948 10.034942081189946
Ge 11.037190285336278 14.159181101855 14.584752702638507
Ge 10.206084033547514 12.299710839130748 10.869640726597368
Ge 8.60736319638005 14.415281187689397 13.957318551709207
Ge 10.168740568115782 16.39680539679805 12.733808581122467
Ge 10.276939037519467 10.578900252037545 13.08965954481401
Ge 13.273156834407327 12.219918254116973 8.331775078870757
Ge 11.793247451840774 10.309731118780235 7.308877462667273
Ge 9.800450693021942 9.351352565435008 10.717851444790764
Ge 8.187723432451717 12.175719715708587 12.629718715806156
Ge 11.446781870519356 8.271363876246753 9.015015824503738
Ge 10.971256734458347 14.843274170380722 10.467763912813671
Ge 11.854715802743574 14.451316291034566 8.07452445923229
Ge 8.564872738815804 14.574533363089053 11.295951624889252
Ge 10.503889297964262 12.300620615924307 8.2638527861511
