27
Energy = -107.80539474 eV
Ge 13.822832476400102 11.634055308825957 9.424860907966899
Ge 8.873221868564915 10.275797087695718 13.17238866535713
Ge 9.837923113487028 8.709579399841793 8.913359410229022
Ge 6.366286777550731 6.543262225734678 12.32140767970948
Ge 9.649469428714875 12.451215797308604 9.058347445456754
Ge 12.887927474938005 7.829466689199584 11.895562732564922
Ge 8.186340070031449 5.825494681896891 10.436079008222784
Ge 12.185025060876365 9.771926191596057 10.296369561846985
Ge 11.735177404198982 9.451529720391614 7.344227368914099
Ge 6.526825179165372 9.341557753188487 11.938246406297619
Ge 6.809633839886886 9.144554718559805 6.858351931546062
Ge 9.002557633929676 10.364289045077806 6.504281185256117
Ge 10.535760814855674 7.178055464849953 10.788139307715769
Ge 5.966155244695279 7.507202082484655 9.866245573485452
Ge 7.954816378154778 7.13660430568217 8.118455866806334
Ge 13.776676373762237 13.643284845941993 7.770468076048348
Ge 7.550472499671392 9.679342942287722 9.506374412007446
Ge 10.049645230088496 10.993143724809482 11.063918815532086
Ge 12.201525154172552 13.953310530170937 9.69326797548584
Ge 12.6552989041083 10.018028216666927 13.348895453726543
Ge 10.769123401152543 8.313088038529383 13.727443442373685
Ge 7.399325422732501 11.840140206512567 7.947781498680697
Ge 12.408452040503937 12.14821233594595 11.755827904666173
Ge 11.65289554523368 12.220634998964828 7.5158390931566075
Ge 11.07623775711435 10.993795435856654 5.306200853408957
Ge 8.61438304910698 7.714384951730632 12.464796763235599
Ge 10.288180755288478 13.761772827452825 11.336925893951305
