26
Energy = -103.04302426 eV
Ge 10.003704511958551 17.20523424786437 8.888718636534112
Ge 10.492245762671496 15.20522965436205 10.28491793922009
Ge 13.054618410881309 15.646687919940538 11.710798705507763
Ge 12.524881858830936 16.889541721539405 9.367704657237697
Ge 14.979829061018298 14.221000024930888 10.428290665159167
Ge 11.106706537054215 15.173562858780173 7.589323027703024
Ge 15.713507037553065 11.685136810765615 10.962702228874095
Ge 11.54385952941809 13.198668949620563 15.271802681164985
Ge 14.274637608320713 13.131831889245175 14.636322875508393
Ge 12.77084551344044 14.212311164299008 9.155010621444733
Ge 13.541388010285024 12.783444971662135 12.141739061173931
Ge 15.612143607242283 11.254796708172455 13.467083066343315
Ge 13.48843925245243 12.400064420632217 17.229375760915264
Ge 15.211474910431411 8.729389787245985 14.2254439858968
Ge 10.989326438471858 14.009107512525489 12.612935147967738
Ge 9.251147990796873 12.633596746308447 11.224837338436808
Ge 11.616780453152929 11.778692936619512 10.763900817612846
Ge 13.608300619276143 10.46712055752709 15.495725496250893
Ge 11.086246917547454 13.281526056186516 17.718775382080114
Ge 14.619818850070251 9.313968991004495 11.57085297593768
Ge 11.227044534549561 10.791241925071553 14.304539149957437
Ge 9.806215536483187 10.23714973127701 12.34028255726918
Ge 12.126907597576679 9.238901974207566 10.83732724215648
Ge 11.103690110962816 10.865680172227954 16.897451126812992
Ge 12.695220551746678 8.742424342787142 13.469252624770988
Ge 10.63055335640243 7.72882692363928 12.246076785627379
