28
Energy = -112.30748425 eV
Ge 9.938975726286458 10.262125868177003 6.233727418808155
Ge 7.917742944545743 8.813034236204953 12.414458139518134
Ge 9.719743385181632 4.983246378979015 8.679059212895702
Ge 9.857212979786613 9.861638570520157 11.106905424922079
Ge 11.190573051024662 9.317537825825235 8.618058797147516
Ge 5.744100270848988 9.212607497505966 7.89507907815382
Ge 7.641932241777035 11.595305068414522 12.44672850173371
Ge 10.7324111135986 5.843670475196942 10.883468193498997
Ge 9.477668390635284 11.289741587742034 8.700166779291914
Ge 7.804446751276015 8.584410589281216 6.371125620896033
Ge 7.314834427792156 11.242151718240603 6.6761223962518645
Ge 9.507286589804627 7.457706210704452 8.035921335551121
Ge 7.694552975818577 8.497559947751206 9.540816984252524
Ge 5.186543584866833 11.685095072444922 8.077620788798669
Ge 8.835618468038268 6.103749500479296 12.672516000919318
Ge 11.812070331670824 10.988724411027555 12.681020762227634
Ge 12.848468105702164 11.306686308518032 9.460784863757214
Ge 7.9674112549447536 6.040379160673959 10.241721187324078
Ge 11.021912277879302 12.687366250368969 6.580592081547956
Ge 10.023114539206418 12.447931280214393 11.652940718085212
Ge 11.937832956294004 8.17559068625218 10.931499419683595
Ge 10.456711742049425 8.160314816267759 13.269285481054926
Ge 13.841891702101572 9.87782992501234 11.383017840700417
Ge 13.548409885923283 12.584021584664065 7.375687194338529
Ge 9.602431547225933 10.465827381328237 14.04813761343706
Ge 11.153377253473508 13.240880584978653 9.29422391171347
Ge 12.694949195028181 10.337675307667554 6.612800344958827
Ge 7.03644321847137 11.069551288244973 9.724034016816482
