25
Energy = -99.88902128 eV
Ge 11.15816937920115 11.867868479121238 6.729022065837227
Ge 12.736543190689396 13.716054370251626 7.975989542392232
Ge 9.229528120329448 10.494617405902812 10.536123877440568
Ge 10.079950894254406 12.59154622762366 8.981701037278208
Ge 14.543090319662745 12.610499376519547 9.634285860915012
Ge 8.9115293856745 13.100008870474115 11.477227219076408
Ge 10.971824582231337 9.85401406843819 8.313709935920544
Ge 12.029461715100291 13.468667605446939 10.489724012581378
Ge 5.789927510735587 11.893709666859824 13.386377806262228
Ge 13.270047094682955 9.714865417911312 9.799798317171309
Ge 6.638501426615767 14.089046861630692 12.273965909185709
Ge 7.875088538716858 10.367613746579583 12.839971085308653
Ge 8.730166214195014 15.10631569822821 13.506541908392762
Ge 7.949036725707016 12.838406668307373 14.346691558811077
Ge 11.106973700734596 13.872227978735792 12.926213217197985
Ge 13.584777551919444 11.120351199139447 7.626138608076586
Ge 14.57248851258557 11.166283140916818 13.749533471528435
Ge 10.293648564049416 11.375871412638332 13.195691550636091
Ge 12.44266228357811 7.4002722499086335 12.654344146513083
Ge 13.020054229184531 11.497488269790605 11.79086814383139
Ge 11.310889917552789 9.447810183148727 11.560683614364512
Ge 14.514448854934795 7.729285281178999 10.815157499472718
Ge 15.55008092555069 10.25214399597223 11.35294848990525
Ge 12.414292017463268 9.594829079628743 14.159143313218648
Ge 14.77681917296168 8.508166871644555 13.344455722298749
