24
Energy = -95.23581518 eV
Ge 13.84690221873167 13.92202141489693 11.259836951183024
Ge 15.8254029776795 12.719962448716302 12.422796633907184
Ge 12.91844910611313 13.055322306818805 13.788572256862055
Ge 15.761641288049315 12.851154818111207 9.679323430600752
Ge 14.718915996516662 15.16023494503272 9.09882948624602
Ge 9.998495705347416 13.397384532217375 14.713957176936317
Ge 14.122143514345879 10.85005384822254 12.64098299415476
Ge 11.899256437973994 12.102817038462412 16.280697718246476
Ge 13.32851602203521 9.15834570812633 14.421157851924836
Ge 9.644865245116225 13.26181807843812 17.142683168416355
Ge 11.3950191364933 12.866554705224992 11.50823806041146
Ge 13.35307512034403 12.4310212523055 8.777180755972752
Ge 12.665249105286579 10.677190062073276 10.512792649137507
Ge 10.431827091690248 10.955150618029178 18.07461432512664
Ge 13.659366241456565 8.286730815248763 11.936749219971022
Ge 9.317387780077235 10.947845937245422 15.751397144354176
Ge 10.340077149862042 15.144445051810774 10.706450949277361
Ge 13.084000639050519 16.794888580136156 8.16829958948747
Ge 10.025273282965705 10.586226899915744 11.53043941880469
Ge 11.171969589947095 8.318634552225635 13.023747607377206
Ge 12.724756305569544 16.325449772063415 10.77571730263555
Ge 11.783358334773622 14.68661026213614 8.712903495894489
Ge 11.193242468992 10.798269935966918 13.926529973307018
Ge 11.338443107948862 8.55613391416708 10.334146024825586
