24
Energy = -93.29493828 eV
Ge 16.438953029800185 13.275670275465721 17.925080662181177
Ge 14.796188195540438 14.470148773002053 16.535387765812548
Ge 16.07691082915075 11.730637175417815 16.02154117100665
Ge 13.84421254025921 12.011035735143656 17.306341970306324
Ge 17.02878992626879 11.506736245490819 13.71138392747082
Ge 15.77173355712507 12.765352775368152 10.95328201595924
Ge 14.54763713141035 11.391624322230491 13.023234298727681
Ge 10.820289135445776 16.047505142193977 15.643975012657307
Ge 9.32440768484156 17.484656985886424 14.273235929622514
Ge 13.221479218814604 15.618053676177427 14.649242205207658
Ge 15.988607370721462 14.006658268613293 14.001601527500208
Ge 13.157790202119259 12.059089572246759 10.602544590102646
Ge 13.437577028922403 12.844381667349948 14.876673445592353
Ge 10.939419279115599 16.284885487468653 12.88270981439191
Ge 12.820794120903294 16.406163636904278 10.994736100579525
Ge 12.7582702679236 9.837701073555472 11.909558036749468
Ge 14.179889003132391 13.959077722715072 9.205600662889417
Ge 11.035887249753424 13.806908238694673 14.304967251133192
Ge 10.254481603574598 9.639452793302464 12.033146363135778
Ge 14.150839551381553 14.515496974261545 12.055381401188
Ge 11.613019600752756 14.875524537537716 9.313949163093765
Ge 9.28475064105639 8.083860568983665 10.431549066821121
Ge 11.543845759234507 13.903716833748295 11.661695014273173
Ge 11.701737126904579 8.264346004791648 10.237044865743725
