21
Energy = -83.78516039 eV
Ge 13.404829038945753 9.234654435022579 9.666797793937803
Ge 11.85632364985835 7.110051188710664 9.7396639397587
Ge 11.91202314606485 11.15757385559123 8.685867093112055
Ge 9.435404256043427 7.885281825715364 10.195638229752447
Ge 11.372758102753794 9.654344410916027 11.042913449634023
Ge 7.759720998803971 6.100871790223549 9.416967292613364
Ge 7.224833334087184 8.335238163434465 11.368792087496944
Ge 10.620418281984087 7.779900649103308 7.522489940190748
Ge 10.941671273011224 10.126008862792009 6.437928555279225
Ge 8.826804209076224 5.869792990191401 6.992032158686549
Ge 10.002788832941944 11.806955199495617 10.270879474557862
Ge 6.065986674955716 6.012344830040872 11.295223572875086
Ge 9.397174593825907 9.913146718652964 8.558682767229929
Ge 5.826430087303836 10.200160587708494 10.21118748280252
Ge 5.155471208662369 7.72956478412376 9.51582991650358
Ge 7.503668514952374 11.660168404519077 8.825627178937626
Ge 7.0656755258686585 6.174745385803918 5.015429602636283
Ge 8.08685923629042 8.278860922215317 5.874615970049446
Ge 8.234674820889909 10.810109355304297 6.251239677791492
Ge 6.084437250652448 6.819464087202021 7.265487747092053
Ge 5.985290537132452 9.538461710570708 7.511319879977654
