27
Energy = -106.55326096 eV
Ge 9.11425148494647 11.18671207731735 15.908990663503484
Ge 11.14724144422117 16.472142269170718 9.131146944168695
Ge 15.41337984720926 11.958355490820805 10.352216886071162
Ge 10.343485993104212 14.980485536195472 13.037889841695414
Ge 10.055453664855674 14.386470957146384 10.551966061826077
Ge 16.094347953804814 12.1433828133991 12.743427909841483
Ge 14.75122855194534 11.425793085294417 14.908745029700357
Ge 10.197820095030314 11.081353378676894 11.214775109643853
Ge 12.157437991405397 16.268020736155613 11.573507426151021
Ge 12.68317886120059 12.995999346744386 14.557300120770826
Ge 15.413773026790604 14.303424798057241 9.308611552769827
Ge 9.543391064879629 16.83477615916337 11.201506347409904
Ge 12.250978056245684 9.185297317288374 11.674119144418333
Ge 15.611619797945082 14.404751043244792 11.867082288848573
Ge 13.090928474361363 13.82954371063442 12.023815000547176
Ge 16.27164572715157 10.989410012611515 16.756747558407145
Ge 10.688020772662329 11.375869096687122 13.890170342412825
Ge 12.792201086344882 9.828342330826985 14.272572019820867
Ge 10.596022483706209 13.363156134651097 16.11952740418128
Ge 11.713999916880736 11.16258407574955 16.805466595991454
Ge 10.968925494768452 12.577842081926491 8.870398395102384
Ge 10.698654778818208 9.120142141905967 15.693980771210365
Ge 17.42216860535938 11.116060143950547 14.593574419405401
Ge 11.677517113531833 9.939835391988488 9.021320405518775
Ge 10.037248406117161 8.619566422190143 10.61251359036534
Ge 12.770718846326151 14.371298173563373 9.367870937655667
Ge 12.851439724465322 11.493613997982255 10.79480365128009
