26
Energy = -103.39960717 eV
Ge 9.012433703051174 7.4451652875067245 14.470472830591124
Ge 9.539038375030344 8.912824042348447 16.527938320283404
Ge 8.200721354835547 8.129063066973664 10.95104322870839
Ge 9.135811535246223 10.294006521944393 14.4197228219252
Ge 10.16320001670799 8.958325575689283 12.341745635400525
Ge 11.482075125869713 8.409113643795141 14.557854852161233
Ge 11.439736387211509 10.666783863564588 15.845850205944267
Ge 9.44528077145667 11.674516752264616 12.277467846218709
Ge 12.1037062607543 12.269244193394167 12.62295537026544
Ge 8.681613514767173 12.322609035695832 7.980182094204538
Ge 14.362835612117907 9.539725351095072 10.193779361421974
Ge 7.456582073491994 10.569004763878043 10.962650564040079
Ge 12.05220909605659 10.175665171822923 11.13419781835596
Ge 10.180727632457263 14.014571745476603 9.228081383125758
Ge 8.488372694294156 9.429009330015207 8.68937647807921
Ge 14.432209862934211 9.44378954660198 7.535524375287331
Ge 10.453821571113734 12.755506321137963 14.530605381550869
Ge 6.523927558419951 11.153184777592157 8.68357447091272
Ge 14.411969982577135 12.033345852762839 11.271047150059315
Ge 10.788923137862685 11.242639770757599 9.16721440940455
Ge 12.182217973159295 14.2417912459774 10.978878125263256
Ge 12.339732393359396 10.85865160733744 7.046937830111927
Ge 9.823785495094494 10.42277106611783 6.620250965494639
Ge 14.726917544071718 11.690743304966864 8.551434683906377
Ge 14.353594403728446 14.09264506834071 9.442384485893443
Ge 12.307529344223429 13.250490022139427 8.057774439192723
