26
Energy = -103.6343846 eV
Ge 12.018819201212825 9.26850498934005 7.593972692874975
Ge 10.119310630508439 7.455307190580988 7.429438851212689
Ge 13.513359687471917 11.411439370241531 8.15811066358649
Ge 9.879425963613711 9.938249062472636 6.106978777891615
Ge 10.866190085626673 11.757202766564875 7.947116918054214
Ge 9.924242948750761 9.400561732655383 9.251673622434861
Ge 7.919082016928478 8.780828725715496 7.475799141282787
Ge 12.98200373049107 13.666458606468144 9.665887089293182
Ge 8.247764284593444 11.401079861068279 8.056229807598001
Ge 13.985576802452384 10.5914755332615 10.684738473444535
Ge 8.546005342954407 9.724477010072205 13.057970535629394
Ge 14.135295140198508 15.242245645323065 11.366383237347835
Ge 10.505667517596661 12.3260637724757 10.551455277176013
Ge 8.209887677852198 12.153191702617754 11.796196520115013
Ge 13.967786462749775 12.732464105867074 11.964260670364215
Ge 10.755615988330275 8.214464991986858 13.062285930836119
Ge 7.6878133891608345 9.917889893796003 10.491555526894388
Ge 11.505096766862746 14.634786521484402 11.77401600452833
Ge 9.909733386266167 9.6051974347368 15.378369466999024
Ge 11.498301916647714 10.177120892078806 11.573120300155313
Ge 8.976948426139364 12.074325424583478 14.427072314917083
Ge 13.562145933635282 8.673019707391711 12.52485859093393
Ge 13.307832866229669 14.350304136148702 13.813448137488733
Ge 12.46774742652846 10.013687604070773 14.345694322296458
Ge 11.327504558736164 11.785115131577552 15.85202461858897
Ge 11.414179951582904 12.347326948663861 13.30067143814869
