21
Energy = -83.57145297 eV
Ge 16.397541030996585 13.528314401259957 10.882493622743223
Ge 15.030209312905956 14.031196057293092 8.829933788751683
Ge 14.66489113286771 15.575594196855187 11.115990546938976
Ge 14.750527708249587 11.294703860395776 11.249593173358019
Ge 16.21025343711971 14.430483179495031 13.263711910845675
Ge 13.065711464478373 13.37219621454793 10.263872811776197
Ge 15.714198671294758 11.697701258525537 13.55855480087987
Ge 12.998883585955308 9.640250308871328 10.331996219077968
Ge 12.873896286914997 9.306361916671978 12.76548021714285
Ge 13.854069485422443 13.566968209557098 12.706804371747209
Ge 11.353769701712444 11.30355205457668 11.568380364805813
Ge 11.559627254447252 9.047580974297045 14.841128348237152
Ge 9.603887790868146 10.415426184440836 13.478845516940341
Ge 8.858885232968497 10.856544484552524 11.005379918307575
Ge 13.530910053791084 10.811823944957363 14.908215129553305
Ge 11.8657329995067 12.449062259578099 13.834343316870832
Ge 10.150666825471475 13.456563249860817 10.506910052755169
Ge 10.433194214340245 14.587312044826577 12.88174568710758
Ge 9.566342103011303 12.665651093243865 14.881813244536108
Ge 8.26586815142819 12.949963435676278 12.42355967922058
Ge 8.172709949406848 14.772522489345363 14.111517206416377
