21
Energy = -83.64687026 eV
Ge 12.77501073749631 12.051555461906164 6.9670354161335775
Ge 14.138063358540078 11.159461053554764 9.463564495696973
Ge 15.552162466192442 12.476944275576123 7.315698441540906
Ge 13.990592410455575 14.241518029028517 6.434693577720173
Ge 12.217618328821239 9.940669432115344 8.330094714070142
Ge 16.25157093464797 12.532635936302537 9.72598551549573
Ge 10.181875888848923 11.6710422270622 7.961815111090263
Ge 11.856754473442269 12.458917995359979 9.685752399120954
Ge 14.170096350327514 14.039250052423583 9.052751119407024
Ge 10.38644217310973 8.215442711301579 10.928396724368612
Ge 8.98169182085134 10.200635024813304 9.888699541646842
Ge 11.001290847934982 10.762023225063416 11.632536469473495
Ge 8.746433770501312 12.329538439257917 11.501466684527532
Ge 9.81268426042417 8.834974448718802 13.40244995300448
Ge 9.89329778939859 11.659112182624009 13.86697830675314
Ge 7.731207758688374 8.317888610081337 11.573782702281076
Ge 9.288085508474401 7.374433142926881 15.49333398539872
Ge 6.595859581543495 10.622053874024639 10.885735400927445
Ge 7.525745457935166 10.569112676528727 13.290760027231316
Ge 9.205902755563228 9.874890684501414 15.843487730289011
Ge 7.212483848994191 8.12037271179113 14.216986467511433
