28
Energy = -111.2910904 eV
Ge 15.136011664418422 9.88403404792984 15.344919767144996
Ge 16.048565991319673 15.990556951928976 9.141882304489965
Ge 15.451843927322741 16.90437867828786 11.552370073023198
Ge 15.893111000566954 11.219551345014036 17.46752072588237
Ge 13.999556110806413 11.651742596332461 13.61141914537001
Ge 15.840127230845633 12.702394166283002 15.103635495389538
Ge 13.870373115783844 9.186065444864873 17.45524040337162
Ge 14.393959631293605 18.16113292502237 9.47162305875011
Ge 14.253052083480663 13.755772693935485 8.820800055644465
Ge 13.277719338235757 15.92670101985915 10.194750791214696
Ge 14.94989435405887 15.143301639487623 13.769728444154257
Ge 13.795988016035233 16.25966241573943 7.676055382584031
Ge 13.587135517546583 13.709257719785864 15.813198027678919
Ge 13.687742829328442 11.6648171066862 18.786013717898907
Ge 15.332522407338214 14.157452204825569 11.254908918538128
Ge 11.772881660872343 12.958843747863382 17.45789589461563
Ge 12.343749970901083 11.547513626874883 9.877716967337902
Ge 10.325951040162474 13.572906379182843 10.188321846027229
Ge 12.285019668096584 15.666609523921311 14.73060089745318
Ge 12.325095747726426 10.794274381687789 15.563066637540565
Ge 12.85735018547193 9.485270584335387 19.768494504764934
Ge 10.132843541227867 11.2856998148438 8.595383050199151
Ge 11.573870738151486 13.49145551252105 8.030972434620441
Ge 12.720502273804128 14.744283639489694 12.331368585856277
Ge 11.294448195619344 10.359277034160547 17.872025114290093
Ge 11.121664102326028 13.225292159826566 14.68901840839157
Ge 9.662822189729091 11.253277664605388 11.080151004413242
Ge 11.820816270022679 12.361062334218685 12.303128374576056
