29
Energy = -116.1194876 eV
Ge 16.79308632541369 10.90122843513608 10.277192247446516
Ge 14.093224448397242 12.675413611267693 16.718963004798482
Ge 15.040979493839403 11.665106275083037 8.340349893111771
Ge 13.966290209004125 17.2178561893008 13.260546298520381
Ge 14.633789123251873 14.700846567698362 14.603875211103666
Ge 12.636829852800483 13.672111866192003 12.565768762310308
Ge 15.222078168225128 9.097612020805187 9.533177172837368
Ge 14.809621295978815 14.96260285625096 11.8208889245547
Ge 13.110639737548295 10.403134095798732 17.64118039343466
Ge 11.553331816066828 12.696380013965005 17.783527348991885
Ge 14.521074413455795 11.286747017682366 11.241846531700375
Ge 12.884154150816217 10.368701713983398 9.084545722786556
Ge 11.29873099321016 17.36108416193953 13.458342106732042
Ge 10.573868018086431 10.397518608806855 16.868627310324893
Ge 10.348456450263939 15.063257643505269 12.63769930925729
Ge 12.664501118434535 16.310853898541374 15.4376281836394
Ge 11.265508844282762 13.379335298677628 9.916163157365185
Ge 12.481607255405013 11.136549898953898 15.226131711048753
Ge 13.793372602013276 13.455637008251436 9.90465456523262
Ge 12.445861116440238 16.256171359872038 11.272628173544309
Ge 13.18795394994829 8.386960835413392 11.107934154436895
Ge 10.250006427916695 15.702450899245306 10.051616830935988
Ge 10.18406804448596 11.055656114900197 9.541843876521947
Ge 12.609559996187658 10.480508887918191 12.733324700644449
Ge 12.0592247160103 13.8259986555643 15.327293276953647
Ge 10.47752527484992 11.998822970080745 12.170275402883142
Ge 9.990460125266145 12.305334999564018 15.145442246118577
Ge 10.392146067609652 9.34697047396893 11.685111299937322
Ge 11.217734507611718 8.422384868231845 9.388463599795637
