20
Energy = -71.72132821 eV
Ge 6.651593292643904 11.262162900116078 4.996658851715894
Ge 10.510747807012189 9.782618217008524 6.321542052887346
Ge 7.009847536563219 8.313137408107222 4.555587944360876
Ge 12.664999039624297 11.047112649458207 8.05602069634418
Ge 4.814031837563986 9.22775691422608 6.312719170381479
Ge 8.959399700660814 7.143719444992064 7.148293592530398
Ge 8.62391514413136 11.859344781403635 7.366493979843732
Ge 11.391222945300475 5.513870553798855 8.396249717833461
Ge 6.978409965170832 11.86827860390547 12.699409977065002
Ge 8.751745974878483 5.538938857776684 9.821665112925341
Ge 10.659985085107424 11.07089295949474 10.330937374757221
Ge 7.1000989935705325 9.435227112738309 8.459188868734243
Ge 9.739394761736513 8.13734623851454 11.322237573599011
Ge 12.558702150947457 6.894578934246715 10.728410443193088
Ge 6.784462864694908 9.15069916716062 11.464672083161583
Ge 14.285173993765593 9.211217141621423 9.887930674231372
Ge 9.488456924348334 13.387147792832343 11.920506090160604
Ge 9.479061437760086 11.715573968226126 14.458490395127408
Ge 11.047934411211477 9.147912713424832 13.98106435954459
Ge 12.990664164360737 10.782311671999796 12.261769072655303
