25
Energy = -100.32159278 eV
Ge 11.84730299536625 11.700523220323094 8.460107335649077
Ge 11.385181252908405 9.680526085170257 9.876506527350298
Ge 14.250758625400056 12.496857541723456 9.754780703106906
Ge 12.016281164993732 13.236470272647544 10.791157656077788
Ge 9.797861263123831 12.992261914836051 9.390968904214706
Ge 9.857073432399007 7.582839188499972 9.472826373622866
Ge 13.81277666822237 15.124368003993233 9.729816501665878
Ge 9.142626428655664 9.282264992728543 11.301081528670059
Ge 7.858204472172686 11.470524720606209 10.638467486195244
Ge 11.150016074030203 15.535652490774567 10.171100523912648
Ge 15.410678857552599 10.843136457176701 11.51108286006956
Ge 13.448138285641985 9.17838813934365 11.315665235249568
Ge 10.965971169341021 14.910052599455076 12.784931836961807
Ge 10.135165656040135 6.660372611431632 12.04870992335669
Ge 12.258064812360841 7.042721366175954 10.432952611882605
Ge 13.236122206686604 16.263379980003666 12.171633685531559
Ge 7.290140124592806 12.679275180450318 12.943512864937553
Ge 15.102495984053956 14.424824042435016 12.078151408922638
Ge 9.770074598669943 12.503561587187733 12.355914083423214
Ge 11.340687855095375 10.384139198874703 12.684014922480578
Ge 7.969239769073896 10.371515337630576 13.44467322522089
Ge 12.41223600165626 7.820347000008601 13.234678501239896
Ge 13.560642672281412 12.145950603230865 12.644591619163208
Ge 13.333184006261268 14.352558548449018 14.027713739971034
Ge 9.860132546313636 8.528545839738657 13.94601686401807
