20
Energy = -80.22114598 eV
Ge 9.051403496365538 9.553401205243935 8.289707991165368
Ge 12.335386076875471 7.231306486480379 8.321518332677368
Ge 7.710272932358554 11.632355828436854 7.462663250709124
Ge 10.943077440524055 8.827754316449546 6.801475879493428
Ge 9.725869986824756 6.946928462199041 8.52658623604384
Ge 10.928876579775823 11.019961922991051 9.440924898326971
Ge 12.922686939422169 10.05415666390448 8.134434391235866
Ge 7.029081023367266 12.426595010489955 9.98855851932589
Ge 5.28786392657082 11.578596906294557 8.325471331974596
Ge 11.233473326999777 6.807211491500293 10.830644429719795
Ge 9.441438435655737 13.075968761513707 8.813349783108379
Ge 6.631688775123058 9.669250571290881 9.432783379550624
Ge 13.051880774474851 8.729524508021061 10.392888632489633
Ge 9.205528247766763 12.597118874625671 11.447579824781718
Ge 11.910836622857758 11.248310023452534 11.964486542635028
Ge 9.644776749138916 9.02920779048371 10.853153514554975
Ge 7.459738608648834 10.426482472915037 11.862646616355502
Ge 13.852581816718375 9.710178511766152 12.562881061903344
Ge 9.826758008544187 10.536948582384477 13.358561222437551
Ge 11.514348598648466 8.606309976217965 12.897252528172151
