22
Energy = -88.25817126 eV
Ge 13.866773558645228 11.657626167248115 15.519981551686245
Ge 15.772395917121413 10.338604705165874 14.146187176254209
Ge 15.595194942109327 12.924680091270117 13.651421993416102
Ge 13.051663043272885 9.405271024202275 14.303406235860315
Ge 13.589498353985485 12.84644989594727 11.875016519265023
Ge 13.116679456286363 13.889558965291759 14.2505858035496
Ge 12.13394017784767 13.832992227724263 10.076983384067496
Ge 15.599441160310162 11.200368229696238 11.490565224929654
Ge 14.757532508520155 8.735780924588802 12.32466556027298
Ge 11.930637399604661 11.488456032993714 8.98190299911062
Ge 11.830035347618486 11.657138965585368 13.609002842502873
Ge 12.820518517034841 10.294888928807424 11.590105139725141
Ge 9.801280293686283 9.557580040445847 13.329747729815821
Ge 10.218129723738299 15.458672492403013 9.814219929073097
Ge 9.334733473857684 12.500201379797659 13.096487820712058
Ge 10.419394589757886 9.224633419839122 10.802598495926608
Ge 9.844320327378664 12.61962738452641 10.407439770346839
Ge 7.624051792502024 10.673638571493216 13.853674489930816
Ge 11.195859924789307 13.904105659849156 7.535082141038848
Ge 8.254186213232716 10.605177027116435 11.374271765506869
Ge 8.625606830579935 13.982990879037343 8.48269730957011
Ge 9.601124714500198 11.629805648969473 7.865994126034137
