26
Energy = -102.90124724 eV
Ge 13.551944291069429 11.498628645200526 10.113012969825453
Ge 16.639324895372777 12.319925795361451 11.315848828749232
Ge 13.441792146521086 13.64782244676196 11.639262020527793
Ge 14.554157630265996 9.275047266182234 11.661578694236422
Ge 11.06157744981535 12.70949123496827 15.397217011697409
Ge 11.176692783689047 12.756698280750788 12.617226417519534
Ge 18.101817001996046 14.518723895384053 12.87789009827376
Ge 9.068483580372165 11.09991500672336 12.563395219205193
Ge 9.76502627160244 8.748193521557692 10.971035450204235
Ge 15.446530980808678 13.20667962293222 13.36041617024966
Ge 16.018633270527044 14.947164614496735 11.181602953430863
Ge 12.21778997986779 10.436210731613492 15.14076313350018
Ge 15.817066709118723 10.498753928002923 9.701614683256324
Ge 12.080719872511876 14.913691118049947 14.545699678818988
Ge 10.212377916698852 16.547250602046823 14.888142850477072
Ge 18.67214805417226 13.6458322073898 10.66710468349774
Ge 16.086509320207377 15.648530940598853 13.77575013219004
Ge 12.225861967727457 9.386699035137475 10.611006596659097
Ge 13.539516281208616 11.205844803722607 13.018742383507272
Ge 8.59240092411429 10.87064464269974 9.76974051804169
Ge 9.279882124668063 14.294861996519108 14.16050189659518
Ge 10.934990707022981 9.464684926507521 13.105519258732285
Ge 10.060182334476133 14.647433807511774 16.679914342542403
Ge 9.52975146018836 13.073729344866791 10.571138854510071
Ge 7.903750469920896 14.543680350809394 11.998258184877342
Ge 7.0754873250333805 12.122844974991663 11.54003287380711
