29
Energy = -115.8224485 eV
Ge 15.686450355027231 10.076317473366668 9.653755873271995
Ge 16.248782990485747 12.228995753222502 7.7917224411234915
Ge 15.595061893064397 12.46314955135532 10.512622720152642
Ge 14.91494508768151 10.297345915244298 14.370569839437218
Ge 14.046974576610618 10.147069599448223 11.836899422998487
Ge 13.55995008523935 11.309018943850292 8.775259429273026
Ge 14.718089327351464 12.65694943018687 12.996826019699466
Ge 16.011806047706642 14.65884687837492 8.89671811096561
Ge 11.809471513603125 8.651387634390211 12.237684990900371
Ge 12.793171996442682 8.817974087760502 14.814320725845285
Ge 11.688858193661726 10.99704767057379 10.75196029797272
Ge 12.279043773182693 10.878363267435018 16.275984020123943
Ge 14.151163258965855 12.658019139852792 16.138975219386488
Ge 16.37672180336929 12.31433893636155 14.934548822673205
Ge 14.21964685643038 13.594761206892857 7.110209450012405
Ge 11.38849961467918 10.947038274291822 13.678182943426124
Ge 13.440201820462796 13.784038375095179 9.889933999781062
Ge 9.580369355696218 10.044701732459183 11.951209118313766
Ge 13.692578591883118 15.759416551494914 8.323348359012906
Ge 12.268623839927873 13.030253853885496 12.25510594949014
Ge 10.402339312758803 12.585388825641092 15.849297581934055
Ge 12.381054460971013 14.286175390166974 15.257175104128079
Ge 11.76118557442331 16.506113110826004 13.832313874350454
Ge 8.804798651128726 12.127312400690212 13.85342147865406
Ge 10.361222118858318 14.202154978698736 13.475984149183665
Ge 11.97169046526925 16.474150919399786 16.68732196926152
Ge 10.375186495417045 14.581412242985017 17.49866126628241
Ge 10.673185440471423 18.283697017534763 15.393184265794748
Ge 9.483825589159402 16.08875886273717 15.563315778092715
