23
Energy = -91.01223044 eV
Ge 14.594873853609954 10.857978673267052 12.693838470438912
Ge 12.601165580932927 12.054007943813273 9.96969813980636
Ge 12.823006790308801 13.472457005078567 12.056117207144265
Ge 14.875001144762846 9.235855652240492 10.75483746046472
Ge 13.211538643769847 9.438551850654147 14.419223665044276
Ge 14.56434116053546 7.806430494776259 13.05880811272779
Ge 11.427407240630844 10.657191282116031 15.831319806187812
Ge 12.010906808679595 9.716168431169905 8.800827731559094
Ge 12.095390979003696 13.520850594946054 7.584789654489234
Ge 13.911291431593526 11.480478498373301 7.867438655997927
Ge 11.632622488965424 11.48328214581984 13.327278940121644
Ge 12.610033213550272 9.080475001000721 11.822040312839965
Ge 10.27472411754324 11.789273892315718 8.619468368623862
Ge 10.124295864324987 14.3637944401116 12.480444645648568
Ge 8.681560062010165 12.402258873194391 13.083341176084048
Ge 10.185796711409717 9.639623711373096 11.919547717642084
Ge 8.023431676621604 10.649855109473815 11.020365839033007
Ge 11.075390114885716 14.333771286577536 9.951233535599346
Ge 11.662099710561266 11.130136467865805 6.49312731934495
Ge 7.084788403031766 10.518441670802865 13.462493230717971
Ge 7.715065582771477 11.905449728182134 8.853745276577104
Ge 9.492640239693921 9.89619782091352 14.286336462004723
Ge 8.412328120668233 13.633962969511648 10.663988624053525
