27
Energy = -107.89351717 eV
Ge 14.164993991275601 14.502450365675704 12.416745734233176
Ge 16.412361885455233 13.410386617084486 12.906993639922531
Ge 14.84706100597005 11.800563667272888 11.525374069834756
Ge 14.58678059334309 12.498448850592856 14.34497494055004
Ge 13.271699113534863 10.950175572091172 8.514447085644553
Ge 9.304920606491459 13.962496504056718 8.326949301099983
Ge 10.221010012829359 12.488381869616152 12.557190107971886
Ge 13.91758531536805 13.28030806487089 7.6160123296474085
Ge 10.98248069096458 10.234964052462585 7.348082373565759
Ge 9.899617271913266 13.368733258211018 14.962833155695114
Ge 7.556769922231579 9.794054852196446 14.37367255342067
Ge 11.386567003096056 12.791432883762123 7.3449168178366655
Ge 12.305634588143313 13.496385625760027 14.09320648113309
Ge 11.58941776915714 10.947710555297878 10.437712551455279
Ge 11.575044715538237 7.260769375269073 12.922982456303998
Ge 13.270278471935738 13.398527827741903 10.070496731764468
Ge 12.621534500323497 11.121701441393656 12.834010306228711
Ge 12.034757976935 9.343494269643376 14.535323579675786
Ge 9.455397805243823 8.264231871493715 13.724163436645425
Ge 10.483512860944668 8.715100063399131 11.096803826440114
Ge 9.91241341286773 10.751880652074215 14.88399703600598
Ge 8.591082700573427 10.464522498376269 12.085691350115848
Ge 9.369139647907659 11.568475668088285 9.204235566706483
Ge 10.790057738787883 13.760030611232581 10.365086000616195
Ge 10.179009447808594 7.960740783777139 8.654087144907242
Ge 8.353728060951607 9.735885586072465 7.67432629760493
Ge 7.9182687720953435 8.828690169283947 10.048557827508565
