25
Energy = -100.12338909 eV
Ge 13.666627979425746 7.218767201604529 7.238500499909527
Ge 10.955753963419003 7.64595108937624 7.588751728419444
Ge 11.062340953678047 12.55877855814178 7.354209261800396
Ge 13.55103535564377 11.854994704762396 7.657325618809025
Ge 9.653114488167565 11.070921354086327 8.731272172344003
Ge 12.915791812425397 9.422588541906347 7.96168387565422
Ge 12.160133370473279 5.5240829729197 8.367660402005553
Ge 12.41883247871253 12.755794022136392 9.81804979440898
Ge 7.6228123456317975 12.413068487632833 9.970190771528973
Ge 7.6006913107441365 9.645179433423191 9.312231987297974
Ge 9.908507697665899 13.916798831467082 9.234328577133155
Ge 12.889140510696636 7.532313604113103 9.831632565057621
Ge 10.577646290850724 8.934411687170382 9.92284833714343
Ge 11.656295646366909 14.715043027575495 11.21388810992988
Ge 11.57143775579332 10.879315068602297 11.34968760973111
Ge 8.62645224568211 8.184427265524207 11.452131988490965
Ge 9.440494475543634 12.375276597301497 11.843348444135366
Ge 7.12014179024725 10.408078406132658 11.793510268119627
Ge 12.8913326263971 13.135685052463776 13.285426010095664
Ge 10.25715471564664 14.139673720916083 13.611994535528531
Ge 9.614616832971235 9.976470142505876 12.994894707880183
Ge 12.61717278924258 10.490705161825069 13.672460807606878
Ge 8.778263746842875 12.146172100798069 14.583324749551972
Ge 11.432421375885593 12.474723651217866 15.340306677541317
Ge 10.478725513406445 10.047717387957224 15.33727857143662
