28
Energy = -111.98904877 eV
Ge 17.60163209080376 12.776818948781 11.952540987763545
Ge 15.759628262270724 11.744276704646452 13.376487723898565
Ge 13.937546847065457 9.35527723899754 13.043201347444993
Ge 16.63131468544298 14.96121012524193 12.886666188360062
Ge 15.584107144319612 15.461319075570035 15.19359471109559
Ge 17.40378839342992 13.347968113222626 14.843315008108734
Ge 13.425020821689467 11.454768869873039 11.505875906218861
Ge 10.118188544880065 10.66910557223888 8.372029716458679
Ge 14.79409065416384 12.996017419061474 15.543509086915309
Ge 15.13699534218233 13.447551444398044 11.022665084603357
Ge 12.078649149478245 9.096101114903108 11.073396788887006
Ge 12.612505538202392 11.23103213134015 8.397973180724874
Ge 12.320001062958912 10.667977184926999 14.622962017846595
Ge 13.921988080462791 14.149081045169218 13.292377544937569
Ge 11.988951095512494 8.696642299698224 8.537678298201921
Ge 11.656546277739539 12.834892612839594 13.360302739484572
Ge 11.084127986359693 11.832417457496398 10.579294904460548
Ge 12.559832886513231 15.651153527686771 11.577713231581125
Ge 9.482283462264759 8.371925706266994 9.43014046540938
Ge 11.250804299651357 8.543845394165274 13.4772810484035
Ge 10.293809462705365 14.283261522711467 11.005690899906735
Ge 12.707845854000803 16.524384548668166 14.054731915423147
Ge 9.599844818193464 9.94102523200888 11.563136198134616
Ge 9.705242122061707 10.817288852338278 14.037750576307065
Ge 9.169442920692314 13.638331376765237 13.24525886116144
Ge 10.97704252719621 14.890297914546968 15.123322986943482
Ge 8.618425444268007 15.644868556644344 14.797597990861224
Ge 10.257364671976351 16.3792502721508 12.891473397561972
