29
Energy = -114.5154334 eV
Ge 13.605166086936851 15.080328599031859 9.452921066458494
Ge 15.35639069392227 16.32169692392776 11.008030963562383
Ge 13.468471453958168 11.06775318532801 7.7126111431012605
Ge 15.838390226625755 11.952336399416554 11.392510539806796
Ge 14.815261338915782 12.720478027634321 14.17000049963683
Ge 13.486610918091259 12.505628702870707 9.84794314844456
Ge 12.0579390429345 15.176332232444082 11.469642357800888
Ge 13.42561047786406 16.824599016880313 12.728513520278906
Ge 15.307265076449658 10.346289680118995 9.399846880100878
Ge 13.527022373606812 18.516474766526226 14.571389160694615
Ge 15.839992006853317 10.46272444472851 13.471500719865281
Ge 14.455085264250078 14.245806842242283 12.098691058842416
Ge 13.94732654238243 9.851793804212921 11.840302703399715
Ge 12.59507888351118 9.548183044394232 9.5045690413992
Ge 13.289611552069685 15.825101848030421 15.173127863513079
Ge 14.365665525856636 17.399113728651017 16.64196349507484
Ge 11.949656097789378 11.737528890629502 11.792577828084445
Ge 10.50623881608941 13.777918874016718 12.965777707845746
Ge 12.347693917711199 12.212881558899436 14.468651391950704
Ge 11.217678533384602 14.322557538043679 15.321460352209856
Ge 10.063183999307194 10.174935419022885 10.938601961182147
Ge 11.608878474554635 9.321837762591061 13.14022781180498
Ge 10.496206756957429 8.199808177292228 9.356533246839197
Ge 7.828868455729717 10.790444611571461 11.9563568031147
Ge 8.076994702914002 13.007292211189702 13.323395484870323
Ge 11.288276353838915 10.112993711016111 15.511751066130714
Ge 10.42838399648777 7.484010471290514 11.863639481722329
Ge 9.165777910206439 10.913018377349669 14.293219151023031
Ge 8.411808386925394 8.667773181495713 13.229070260900208
