21
Energy = -83.54628851 eV
Ge 17.519002073275303 11.8356617224867 12.03655051187542
Ge 16.699164085039662 12.301399227347071 14.409480730958164
Ge 15.094306274944744 11.2514904655412 12.388319341915397
Ge 13.92715162858261 11.747490362577462 14.81122453051668
Ge 15.474173720992173 13.150942076248503 16.42461860592403
Ge 13.014261544140545 13.437578303731009 13.054886717495954
Ge 13.603656821160696 10.177332293032336 10.582650984657954
Ge 13.7951420486286 13.218012113100398 10.516987617906546
Ge 11.348362190740943 11.549088754257477 10.475941524742579
Ge 9.350053936132166 9.653511006491042 11.329040551877585
Ge 11.753815304710638 9.670641713321555 12.333830736082481
Ge 12.944120501534274 16.140711603559637 13.802067942571684
Ge 15.01524204265003 14.597144548507856 14.412341068054182
Ge 10.03498443244751 9.998938866882256 14.180303789814722
Ge 15.961259107789694 13.886466710542194 11.968386441832148
Ge 12.368268832763118 15.395985696897261 11.320737998217117
Ge 8.134783698685638 11.36350874786052 12.925536107895883
Ge 10.68522443848665 12.2455250158023 12.997385075279073
Ge 10.646229691048646 14.929605374339568 13.488793407313118
Ge 9.218937597572584 12.83147355000915 10.911907533808739
Ge 9.85265696841448 15.474774110131882 11.163983223437954
