28
Energy = -112.70666022 eV
Ge 12.252191146615052 11.235349872000368 8.66016234544936
Ge 13.89445873197111 9.168870575436717 9.167948578259042
Ge 14.191285653112754 11.490910749821838 10.54705722841551
Ge 10.951747489184681 10.489446637715194 6.574916513037063
Ge 8.796627708583886 10.67759436346836 8.168964143380398
Ge 11.876136756589466 8.123394666695896 10.45623155643496
Ge 13.968511528236624 9.149713865799228 11.928203580369976
Ge 10.896159190757123 5.792844853265949 11.448494609890368
Ge 11.909538953711534 13.084011605611465 6.672535929066395
Ge 12.874936179763921 11.471591338984238 12.901908990145097
Ge 12.532023223254031 13.955408241376704 9.19825193277024
Ge 9.266305031626628 12.721316376577208 6.424196482094401
Ge 9.987414865056458 9.796285422721018 10.215462444903391
Ge 11.284852745189554 12.014929597801457 10.917231185242839
Ge 11.946594914337375 6.988062443926666 13.604924432386916
Ge 8.158447213652638 5.98443768427502 11.457192944995134
Ge 9.552712110826635 7.024495618975817 9.428458142510866
Ge 8.397371351771877 13.161355675502229 8.975537299008394
Ge 6.412669826743174 9.812292580340028 8.754393096653912
Ge 11.320409718272945 9.35795005041426 12.867466368283512
Ge 10.170618513207481 14.341010751361539 10.679284718628656
Ge 10.187108499192442 14.812969054300506 7.917723082073613
Ge 8.817336754678108 10.174870070716109 12.541823688702305
Ge 9.392628990866008 6.808591457216607 13.596714700603764
Ge 7.624654961612774 8.537811159122699 10.615714391329236
Ge 6.562678566889499 11.995510293968934 10.212327823788126
Ge 8.318385633552673 12.661234976504232 11.97235964735911
Ge 7.257091200534213 8.174604099262638 13.21293154886025
