22
Energy = -87.42814329 eV
Ge 10.358354324502526 13.873091772371948 8.197456991645877
Ge 9.587152002990337 12.120598229597919 10.683878572033532
Ge 10.571535550242555 11.087199413340038 8.479465137010756
Ge 12.413434790655952 14.352575915380747 9.900221724425139
Ge 8.171589548825542 10.007335887399796 9.139262300941613
Ge 9.796015755665199 14.756594779239693 10.627752044252492
Ge 8.178398278095948 10.256243762563042 11.764670029464172
Ge 12.628197661387677 12.613304580657653 7.873028418467478
Ge 10.660478868457876 8.489482796819113 8.33098883821482
Ge 9.238588325295119 8.035269196727834 10.540841272124277
Ge 11.428787321743604 13.43337481875995 12.330991662925944
Ge 11.929214869115084 7.785153708333989 10.506280232955143
Ge 13.837511807838771 14.604337100628321 15.523231174903051
Ge 12.294157613482916 11.684661689816808 10.418297331208265
Ge 14.07544902193589 13.902759693503539 13.006510857883077
Ge 11.003973890926087 9.303786558160711 12.67632212796397
Ge 12.140497841397528 12.784757786713948 14.97114677933052
Ge 9.93615127382153 11.506721893611717 13.488150358396664
Ge 10.433712081423671 6.821985587318202 12.422497141543923
Ge 14.888876624243702 12.336445343331889 15.214736404740279
Ge 13.584523427070298 9.727419057348467 11.364850961477496
Ge 13.66019712716864 11.292163645860342 13.379348024685594
