20
Energy = -79.76603767 eV
Ge 10.260073185477754 6.279475693220179 8.128452465672613
Ge 8.163325396445474 7.07649420381179 6.899827835741376
Ge 6.6699921699780225 10.96196372677111 9.643605716422977
Ge 9.03952641260029 10.961032176725261 7.459543743208314
Ge 10.284111305888036 8.569070726946478 6.823695951517589
Ge 10.273102075221543 10.173686480892766 9.885540364145012
Ge 8.37684826907401 12.832514048657048 9.194367028454915
Ge 11.40373475217456 6.431200044687226 10.469531740658113
Ge 12.340714221611595 7.707746559231586 8.226725234187159
Ge 12.629649626058285 11.175047247086505 10.488323466681955
Ge 11.051917719714165 12.387419682385982 8.343175204005949
Ge 8.005680241770852 8.776846923817095 8.787962249956767
Ge 9.335793226768645 7.971736179107093 11.031088058539838
Ge 10.154738132268893 14.477036290286607 9.715366745781335
Ge 12.074190884679414 8.786074250440501 11.581940860510082
Ge 8.323101776851267 10.813902314445272 11.557085636868157
Ge 11.879786610262633 11.034367759918544 13.063689382275411
Ge 10.360181088743936 12.614978461695229 11.466213054204287
Ge 9.943879496430627 9.13188806167271 13.321124683452574
Ge 9.268446844780023 11.676312605002018 13.751534014515634
