21
Energy = -83.56341242 eV
Ge 15.112038459522845 10.874938515537428 13.822537531725736
Ge 11.131961919142878 9.823373859190099 16.27586761276529
Ge 14.728246230354186 11.647268490443397 11.31887650795622
Ge 10.696042368969922 11.798596135959428 12.795399652814641
Ge 10.199922475323152 9.34114335225146 13.674483188686748
Ge 8.57554244147901 9.267122771787376 15.604480311419126
Ge 12.595057466620021 10.835146097768002 14.298274607623597
Ge 12.211667435523065 11.60319473180476 10.687889648214753
Ge 14.395452823684668 12.676044341532979 15.781590446770712
Ge 9.340736833022143 11.612592554236784 15.216875407070189
Ge 11.099837747134925 10.96721575158041 8.346352124812718
Ge 14.671070851793454 13.496260190281767 13.394081188233354
Ge 11.743272360962386 12.415541120848234 16.51143045974861
Ge 10.617100306916903 13.441642246407794 9.136771247928587
Ge 15.643844638004264 14.102709443622174 11.121936376850984
Ge 10.899231160140197 14.28286615575217 11.6760007895667
Ge 13.35257083869143 12.510468897498972 8.234401484872478
Ge 12.190463866587875 13.592100689157665 14.17417643470129
Ge 12.430002499736014 15.031182169987174 7.957285883895417
Ge 11.248634595927152 13.060699273384529 6.672624573769774
Ge 13.162870478313366 14.233753446086688 10.445716711305701
