26
Energy = -100.22699781 eV
Ge 13.111727276602247 13.432143874916903 12.51679417901846
Ge 10.621359745328013 13.759785057234318 13.10820524742906
Ge 15.787804914943461 16.802399200328296 14.35407859057673
Ge 11.315028322523366 16.01765707075323 16.839044209125678
Ge 14.07317575796558 15.278050205316484 18.15858095594108
Ge 13.317485599260174 17.2628042615266 12.942653983683373
Ge 14.20568346260501 18.80704243014325 15.052140267594108
Ge 12.863334750420567 10.907172275987897 13.266915118203851
Ge 13.175090067284195 17.835982965847297 17.437533305754148
Ge 18.230094097140128 13.963273685651162 16.388895118829804
Ge 12.539580364584717 14.217450191189812 4.72768085690478
Ge 11.630705522906442 12.42413507360075 15.015580490192688
Ge 14.49494197091829 12.327934433991034 14.782585945498802
Ge 15.950698522245307 15.112905543517419 16.386041575097778
Ge 17.624985925585527 11.570371159332973 17.088621349484455
Ge 18.648051637926265 12.341235428351762 14.381929689215097
Ge 11.322608727834236 15.951301907560978 14.174188195251467
Ge 16.447915249197216 13.740682512256539 14.08565083516476
Ge 11.528035360656169 18.360612319957177 15.329151657373398
Ge 15.02449995641476 11.021305843703619 17.109364973352378
Ge 13.268169790183363 13.01323021121186 16.971891003162035
Ge 13.568719476258673 15.968198843211919 15.442572868245083
Ge 13.279535531385793 14.862945139483443 2.5116537594804784
Ge 16.821936465649912 10.655246083054383 14.830457057133575
Ge 14.534400345794928 9.549290623286218 14.93483991373228
Ge 15.095013709223347 15.13602162946964 12.24197932665172
