28
Energy = -112.68550352 eV
Ge 12.011821616855414 5.759182718270774 12.141624884541157
Ge 14.349649854502458 7.008251875212163 11.586786613529563
Ge 10.470464870544289 7.022615221069069 13.843993391734406
Ge 14.604633504652801 8.28271058290731 9.03458867226127
Ge 13.250225340830236 7.468176992267853 14.01497148344129
Ge 9.69958408203336 7.163864347021235 11.294586091982454
Ge 13.238154437878162 9.306427922143206 11.992448798083432
Ge 12.01565007513246 7.576463192530696 10.153842408654995
Ge 12.373109687356953 8.850265774675416 7.894181111114539
Ge 10.600004129695389 9.661503724773798 11.301025211201003
Ge 11.251442413915456 9.47761393443953 13.894741817151342
Ge 9.323831594869954 11.407717119019606 13.001392709801115
Ge 14.183707925352685 10.846333283405794 8.844641378887067
Ge 7.87002847783007 11.19498997455384 7.866807672212011
Ge 11.646455601118376 10.89929571887345 9.302353105427185
Ge 14.077465856004466 11.675518941168445 11.404557825010789
Ge 8.575588464696034 13.613529214865586 6.76855447378025
Ge 11.347322075594937 11.819248694232302 14.971196913511074
Ge 13.705395771447522 10.94354842489922 14.118700945479421
Ge 7.6478433462776545 12.01193081393644 10.346104084434083
Ge 11.94425893228889 12.55537096586495 12.475567895348137
Ge 9.858655494878432 12.580028644908024 8.828282030864981
Ge 6.241469032220951 13.258432338980027 8.25564020201478
Ge 9.154936150483035 14.461245302920636 10.543208774905176
Ge 10.29287158196953 15.097785901026377 8.244943199030129
Ge 6.557893416693835 14.338200173896883 10.707915469541554
Ge 10.014848747266292 13.977386423801418 12.935064590544298
Ge 7.699053771506702 15.588508450830231 8.569536993408342
