24
Energy = -95.52909831 eV
Ge 12.761637373998328 9.771610160586055 7.687784614678616
Ge 11.728186300659251 7.93090260254339 9.166411384235325
Ge 14.136637640969616 9.1699758219478 12.748159972900972
Ge 14.07574224270759 10.341370045132471 15.033890028401892
Ge 13.214995124033381 10.691966731842506 10.885789982844129
Ge 10.916923627546925 9.597944689103546 10.962041705889256
Ge 11.17265067696282 11.726473939445183 7.366893047452096
Ge 13.686697004678358 12.14598188211824 8.770884316948719
Ge 12.720397584107648 14.224551303411896 10.680054832620076
Ge 13.013311244973119 11.793557771013058 13.224410717900856
Ge 9.926695990938335 9.572246666959956 8.358264932021237
Ge 11.869263845979157 9.298048903595197 14.152036075114387
Ge 9.215855905526261 13.518049379135462 8.165287656229406
Ge 10.876575513767074 7.496987147204535 12.54184994880623
Ge 10.466780460839919 13.826497498625876 12.184388397136381
Ge 11.930757433726974 14.283243018385027 8.010837686365155
Ge 8.193152767065817 8.258002573862452 12.50186966863916
Ge 8.499531424763354 10.496368514725418 11.149143069581362
Ge 10.854815152546207 12.325177275862169 10.028723484571833
Ge 10.284061269923457 15.279784820099236 9.880083041980681
Ge 9.406947954806762 8.644795734943758 14.753494113764615
Ge 8.316611791680184 13.214795885007279 10.688056543889711
Ge 10.27887777320224 11.28250331468714 13.157737074554625
Ge 7.894788129859215 10.608485801800333 13.831492899134407
