23
Energy = -91.545058 eV
Ge 12.348091531538444 6.078817315472605 6.771715251553523
Ge 10.61142552604461 7.732558265787626 6.175161396167325
Ge 8.138078539877691 6.8213320219405364 7.433707493357446
Ge 10.434057216552066 6.117871643301954 8.569311628668045
Ge 6.649724698723667 6.028978853310305 9.63296985646535
Ge 8.91526748398708 9.646223626112691 6.1492955921595955
Ge 12.52864192461428 8.030450280619336 8.456383883165797
Ge 10.979430007033294 10.15701433131403 7.987201601275234
Ge 6.514969525634386 8.807244031444736 6.686345259790184
Ge 8.971011381901251 4.852184670418179 10.376403826723234
Ge 10.790677967319663 6.745035322863323 11.189266111551257
Ge 9.601917407046145 8.578588745994011 9.495699132339784
Ge 11.293297920192932 10.375723588591097 10.743801580072597
Ge 8.022540554384172 6.846540873092816 11.720463260836123
Ge 6.7513533809269966 11.293518613383785 7.543715160068459
Ge 9.28573242299497 12.118593073300133 6.974090757185506
Ge 10.506124088623457 12.537236458729176 9.363957769950172
Ge 7.075606973876156 8.558543597574072 9.260337911315771
Ge 9.554152389454565 8.95037942576813 12.259741183902785
Ge 6.600438112051355 10.692510450141173 10.590000025491728
Ge 7.949530220750201 12.819724023936564 9.42258771437016
Ge 8.94867802672512 11.47754681504255 11.630082818007994
Ge 5.3633634120986144 12.537254840986668 9.226183227704004
