30
Energy = -119.84251935 eV
Ge 10.492206042870496 12.424327280198169 6.525516686468931
Ge 11.953775706629363 10.097445498259123 6.671411734021107
Ge 9.013723971031894 13.206624635977885 8.583366093348099
Ge 8.358956657421055 10.77305785438455 7.276038661602236
Ge 11.673588032232177 14.29655250190956 8.276616195843332
Ge 10.040475435928535 8.76863771708578 8.175373709992375
Ge 7.60450714566375 8.956993607916605 9.258185944449204
Ge 13.464999000271899 12.24439503149281 7.528853421851023
Ge 15.090316404247451 11.507469356941645 9.684286577924905
Ge 13.291112801523045 9.83936019139565 8.962033948731678
Ge 10.794956995463544 11.170970908608547 9.054949016445036
Ge 13.88323561043947 13.843703486392279 9.635015466521521
Ge 11.032906130502015 8.27841697250403 10.551479006715493
Ge 12.349878417287044 6.526730083429564 11.846183368624354
Ge 6.785786652572845 11.540147149054633 9.19320637296264
Ge 8.934977413848406 12.170273944712541 11.108595977316112
Ge 12.820395733870818 11.44293918054685 11.163480710855099
Ge 11.59449677374823 13.6854007776968 10.953198792369744
Ge 7.052596381655733 10.421480348616276 11.579986444757933
Ge 10.418470081817048 10.279953518119735 12.071583487299822
Ge 9.784802749281255 5.998451517444468 11.976974918326317
Ge 12.366607331427852 8.552144172927557 13.484061732416201
Ge 9.590106169858467 14.264926083591394 12.50538579512709
Ge 13.39338217450983 10.97464283767672 13.75420968530688
Ge 8.555837137541959 8.290568309822042 11.774915175669866
Ge 10.888333727896596 11.139973701944959 14.60446532892079
Ge 12.09321167953552 13.488960934062325 13.72221520069323
Ge 10.80936461605564 6.761958678907893 14.280680871420202
Ge 9.86027917302249 13.456672194316951 14.933451188953244
Ge 9.388393280481154 8.978500952697575 14.245957913699833
