39
Energy = -157.2690375 eV
Ge 11.95517846732646 16.33841195690287 20.193421185174884
Ge 12.371673742983988 18.82176874377415 18.95158503108207
Ge 15.215966523810641 15.802152694519158 17.422734489735976
Ge 19.488822031255143 14.836330071949577 17.76805036019542
Ge 16.74447253194058 15.91748424614468 12.586148259498785
Ge -2.8249468858282767 16.432749124726747 17.055556776763225
Ge 20.34460465902017 13.202805464929336 15.627004453300401
Ge 11.172111072181604 16.96513345997481 17.626258412076417
Ge 16.080070101320338 19.82859953047548 17.88953009774376
Ge 12.857156303687074 12.366747465105034 18.576879005878016
Ge 18.440387040752828 20.52657117453101 16.874661413996886
Ge 17.87243274588303 14.838308866735682 15.511616878099083
Ge 13.87660476260737 18.347574088722066 16.831043408875793
Ge 16.88013747991813 17.983425106900665 14.32760740133071
Ge 19.175595256419204 17.143911575247692 13.077856839658233
Ge 20.610535042387045 18.411598274863163 20.010800970975907
Ge 14.711124650732991 14.013812204631146 15.44265118801943
Ge 17.035316041393585 17.590527883870337 16.835925117492646
Ge 18.456954867890055 16.608834636715564 19.78199369486642
Ge 16.51862462262393 18.286740485513686 19.89675239494002
Ge 15.494056073597111 13.267921789279066 18.126107241796866
Ge 18.238618760732976 18.940391787750507 21.69623465854421
Ge 18.719571051462346 20.112359014410725 19.339019378249144
Ge 18.55272932208169 16.251456688321444 10.721542811083049
Ge 14.179687321308842 11.709623429727491 16.384401065142313
Ge 18.197597973840463 12.737003736486985 17.014657418619553
Ge 19.8351415128468 16.885279367319274 21.903058316957466
Ge 14.791044981853794 17.698899243866908 12.841238172271018
Ge 20.206767152851995 15.676784527286056 14.983622118132242
Ge 16.43105792573964 19.827846588279296 12.428286509404455
Ge 12.668552461167465 14.833221020813331 18.218706607495026
Ge 12.952969434934497 15.99681499578992 15.687645457009657
Ge 14.280433073846597 17.15173364589923 19.4347856666908
Ge 19.4507640992201 18.098375907574077 17.533996712067136
Ge 16.290752295931735 17.709828470265762 10.601169022288392
Ge 18.790708604246696 19.66574108820214 13.701165018124742
Ge 12.040724420954623 13.281118028357831 16.07944404460146
Ge 18.727102468023304 18.938393065187178 11.060491882848213
Ge 16.58277932744263 13.583256738886762 13.700308205537306
