30
Energy = -120.19130701 eV
Ge 14.935464324671022 14.481399023725 7.640529768394655
Ge 12.48904208930381 14.68997237250003 8.236262469019362
Ge 11.197347980989939 12.604134323682462 7.305727101697193
Ge 9.564974468678884 11.07620110691807 5.92314439871803
Ge 13.833870417414094 12.149426745040442 7.944861455151422
Ge 8.137678542221053 9.988588909606595 7.874451247341516
Ge 12.301072425226959 7.9611018773258575 8.510251860914973
Ge 10.87854378554375 9.896977872406497 7.776475883561544
Ge 10.763455642279608 11.588531515829434 9.824700954274938
Ge 10.7310864181054 6.307582325541449 9.783717424153055
Ge 8.738788843460545 12.45960000731208 8.376430962403818
Ge 14.473773119013934 13.78523883826095 10.042686288791945
Ge 9.374403027713399 10.115992100340145 11.714120508122313
Ge 13.479592563655116 14.997511786786827 12.089637019511557
Ge 9.438679008394205 8.509069372884838 9.649699972381907
Ge 11.582342980282428 13.989923596530986 10.732684778335605
Ge 14.079999021209906 8.895375103179074 10.093226561518298
Ge 13.276361716979713 11.296700069051845 10.522639146003986
Ge 12.209690013580708 7.759682139188328 11.321990067702137
Ge 8.633859241210011 12.676664465278401 12.085848635764563
Ge 8.654201094658285 8.318212275078386 13.722961479044887
Ge 7.157293775111748 10.61527166366819 13.245185950582918
Ge 8.45904657574054 12.583069677003722 14.783833399824283
Ge 10.735284575641558 11.884545040079312 13.422133252721899
Ge 13.182632040936712 12.491624566377416 12.726040618909487
Ge 11.21291657425481 9.125851463811745 13.252283166811887
Ge 12.676846858110942 10.712476720739094 14.799555487276299
Ge 10.356734832237391 8.658666157147765 15.755641559859294
Ge 8.08708420780469 10.04135510691182 15.730645972620442
Ge 10.432687361044371 11.414007303269132 16.187386134060933
