30
Energy = -120.68106906 eV
Ge 9.880420486315554 8.759255432454452 8.263188481716004
Ge 14.91968685778741 9.743251186608335 10.974167716138126
Ge 15.000386148503742 11.682701103442938 9.035040523695768
Ge 8.027274375437889 6.923913175901144 8.553610270869111
Ge 8.299078540885624 8.197562340022943 10.67243470339035
Ge 16.287518738200415 12.0912220250611 11.397191712543561
Ge 8.852859873535055 10.849122786715258 6.959696602536754
Ge 12.788315908078102 11.18693986888282 10.498639942907463
Ge 12.92743638306788 13.429958355444771 8.747219442295766
Ge 7.153844982378774 9.415006395517727 8.488745582415259
Ge 10.53490383772301 10.096766761655907 10.364225839289201
Ge 9.18062657049645 9.801016182177717 12.549398468641204
Ge 9.975202053467974 12.133217345887799 8.88173130046006
Ge 15.341320620109705 14.227776769453936 9.997802473163253
Ge 14.187489175307487 11.209836680146402 12.956906670732822
Ge 14.45512076571332 13.85168749484153 12.491448478596991
Ge 12.694669170838674 8.909434165761354 15.750477486951443
Ge 6.675335013769521 10.275575612688074 11.028461173269129
Ge 7.159457819327285 11.979791701870566 9.01102930769406
Ge 11.821920630505746 10.33203496342504 13.738562747081916
Ge 10.618491578415345 14.38657798078793 10.039367708826996
Ge 14.157917245763645 10.998827292124542 15.560625244468586
Ge 8.717786833736431 12.135006722313221 11.292777517581444
Ge 11.396941307502894 11.030744539676018 16.372354282359698
Ge 14.930031081060434 13.508643097943201 15.101258362024383
Ge 11.855928672136914 13.135455132291549 12.01220426791402
Ge 12.881493429354421 15.418216864986244 10.669411588861468
Ge 12.595694836252786 13.360755262928723 16.371122293138058
Ge 10.613627545117163 12.76365796495745 14.418049122248542
Ge 12.481657330595331 14.778289033649065 14.255354748520954
