31
Energy = -124.08640309 eV
Ge 11.603773892728446 10.074873920980316 15.896192195120873
Ge 9.692926857579177 12.039844808207876 15.970968523995019
Ge 13.231667598422328 8.859673050721494 14.244828464530455
Ge 12.947514678751993 12.22116996138793 14.476070117040098
Ge 12.176414071854078 12.329595929639785 16.90469888956915
Ge 11.199942165450485 7.932895464097792 8.135553578791797
Ge 10.882857712817847 8.867202987143056 13.115216316868132
Ge 12.943938836110396 7.693759885645844 10.221425357679102
Ge 14.956073689110857 10.848723706887869 13.70902702764691
Ge 9.633776950249912 11.497981954995094 13.261304767265578
Ge 9.104913083492418 9.586587646325146 14.975575634737526
Ge 13.923000612425698 8.04288099558162 7.811047483196438
Ge 10.246912759549586 7.905301724129032 10.599155185789261
Ge 13.452488475202193 9.82272629363658 11.720304353211587
Ge 10.358599838768352 14.02526672880361 14.370674081980285
Ge 10.220096666853909 10.205663830727412 9.288509240510617
Ge 11.250947256306748 11.002759355656563 11.398464598374414
Ge 12.651058479036026 14.459724882805022 13.07168354230236
Ge 9.566030351635781 12.207553730662013 7.74936474877458
Ge 14.582350782929895 10.093138205569664 9.262702355392447
Ge 15.377643110480516 11.732979202582131 11.202348981082979
Ge 10.404089947008261 14.803559025973092 11.742811252535066
Ge 8.208500335284908 15.298195622694735 13.353549105947275
Ge 12.966773557593116 12.8804795987431 10.92368484141484
Ge 12.324069925645217 10.379978024453072 7.771863377720028
Ge 8.094225181432215 13.176900229159694 11.955857325472762
Ge 9.006016875819862 13.843983829035905 9.711992293459193
Ge 13.935687144719424 12.51406139755596 8.365669093915905
Ge 8.45764852554392 16.21927581355118 10.90263771872802
Ge 11.920743498038766 12.688659991154916 6.525095212769176
Ge 11.636244391163906 13.876452734913485 8.863988277497585
