35
Energy = -139.77453259 eV
Ge 13.516270557927937 12.526582163036757 10.618715686004633
Ge 12.140296851132979 9.760688746374903 15.794280870184384
Ge 12.336552683486246 15.78768821474494 13.47404553644071
Ge 16.449723085992797 9.51483437644379 14.637212002232888
Ge 14.40013038141078 11.579680365177708 18.596133860479682
Ge 16.033133477222695 12.270671218888085 11.610102871499048
Ge 13.973247707148243 17.007031839531788 11.509458148842873
Ge 9.949180301245736 16.482873772532457 12.718341527673873
Ge 12.767595948641725 12.224049708632696 14.222686463144209
Ge 10.343640420581648 8.323747852840588 12.564422901147713
Ge 9.99537307793649 13.90794920463476 14.149485281870527
Ge 11.648278811702484 13.729825021217572 12.054038306062726
Ge 12.118049410721225 10.092528877426009 11.620183125672867
Ge 12.339878174468101 14.266454154588756 15.939334034115001
Ge 7.851802794938794 15.403393473431512 13.531441909088704
Ge 10.224994024314478 13.62557931255265 9.808193466612096
Ge 8.099367506453147 11.519075190036304 13.009239183719862
Ge 12.284404782740003 11.997226318848195 17.15789837545337
Ge 16.51155947910626 13.716673126998176 9.394411704350201
Ge 16.530016785731327 16.27947526283653 10.062288061520487
Ge 14.709642067464614 13.328483523795805 16.745549336065693
Ge 17.81467992457855 14.539171919477695 11.5912956710678
Ge 10.45371152314199 10.716253192483773 13.730895587055358
Ge 13.942731244695137 9.864859267760085 13.896506050225758
Ge 17.70723669927036 11.577669549990452 13.439642559513448
Ge 15.536283133135353 12.061166858603489 14.64506195816533
Ge 9.242275199856188 10.405427444000464 11.040651425139147
Ge 11.143414837604054 11.08720354099633 9.317113265213647
Ge 12.911805450255576 17.10104141021781 9.145318837602021
Ge 14.814003396316492 10.147122835904659 16.521035213712434
Ge 10.65009780952165 8.476833488112492 10.0324206978375
Ge 15.24923617204587 14.75393934036461 11.950141759984199
Ge 11.08598927457667 15.950781791281935 10.489016655711502
Ge 14.175038907730274 14.914913594799911 9.449468111627365
Ge 8.54241761456386 13.802907022715468 11.734874984669746
