36
Energy = -145.31529187 eV
Ge 13.527601618091808 13.3206299859869 17.166501395706582
Ge 14.948932344568904 9.428169571843016 13.080927120320695
Ge 14.057841494890333 11.17328884617014 15.746631763168756
Ge 13.997763472405097 8.682078432119832 15.467586111569608
Ge 14.76422611544118 14.032682725684795 14.847489794062968
Ge 14.224067716796691 11.95247796753095 13.187345473891435
Ge 11.636700264160698 9.650515059929765 15.526968072417146
Ge 14.32638444657272 8.690492453468503 9.06752388838685
Ge 12.38349578862808 15.16336358561118 15.59666676827508
Ge 13.048829190975303 8.960158839290113 11.368664644242978
Ge 11.297474809144022 12.315813185225172 16.277914414483913
Ge 14.594488616399923 12.759856258670721 8.940285571618505
Ge 14.085237135674825 13.636276852110134 11.289635168447745
Ge 11.741470193577031 11.648906319915293 13.603235133978274
Ge 12.90414986434513 10.872011723459146 9.378353456401264
Ge 14.106795389039693 16.966426633913105 10.198594479173385
Ge 11.408426498615425 13.917030469588914 11.153582535528605
Ge 13.121360683319615 14.829039314207897 8.659326368829428
Ge 12.060951522335847 9.089201037891462 7.61075686679921
Ge 15.472032229163096 15.671896049043792 12.010514823105657
Ge 8.683678769949566 12.856144383989262 15.821323083294097
Ge 8.951407118828252 12.112065849694813 12.9401005331988
Ge 13.221633394564227 17.097491391967854 7.676454502707991
Ge 10.544768578823483 13.848683377696451 14.13805127664296
Ge 9.590628985693249 10.430685959209766 16.954366290577177
Ge 12.65325179096904 15.861123399422812 12.245653305295605
Ge 12.388253870834452 18.71082701692347 9.555775785986418
Ge 14.090209619506712 16.58957797410766 14.175133138267622
Ge 10.051916081441632 9.533937539429791 13.556514032855457
Ge 7.949610225469841 10.538099579798216 14.815447124659507
Ge 11.29961781619415 16.35337433963333 9.71762091259953
Ge 10.646807842468563 10.408816352411627 10.932425526904579
Ge 12.345261043278393 7.059163418792441 9.476764048810868
Ge 10.411347291642546 10.985868788900607 8.420735021936839
Ge 9.854013606089591 8.41606816370986 9.119166317497386
Ge 10.702025961258693 7.745397244962208 11.538689156256867
