32
Energy = -116.14402266 eV
Ge 18.99992498015269 11.682639867665518 16.300152099948725
Ge 7.23695062846821 15.241668556828127 12.236717284477315
Ge 16.560504286771142 13.512034281289703 15.795197448690606
Ge 16.337251065432113 11.118710582048234 17.61008358516035
Ge 17.793677702284842 11.97000527497144 13.511674940319155
Ge 13.326157039235651 13.769218238149136 14.618233335664357
Ge 8.526557241123848 14.279692540632354 14.790657133536612
Ge 11.11650875424454 15.809216858917091 14.039560618930501
Ge 15.464676921136705 8.709100391977453 16.024924553487367
Ge 6.555829027476491 11.666693843040333 9.618604690087137
Ge 16.460904085366913 9.282483517832134 13.233503140064713
Ge 12.451826242741015 9.015588471533308 15.72366833262126
Ge 13.867771907872905 9.885436835888443 11.738371180898584
Ge 11.921687647328081 11.207757546093529 13.6855015290457
Ge 15.532362499345046 16.305576719651494 10.894857153618219
Ge 14.652813089316153 13.572565552639816 11.8494690279627
Ge 13.071554018474874 7.315716561511707 13.257109829254164
Ge 12.439684396959613 12.856278957690666 9.903760286003749
Ge 10.107837911801273 15.540869542230443 11.148284759808195
Ge 11.362979071055943 18.218664762660044 11.706031443297787
Ge 13.258993379146295 17.619121646420336 9.415266365618978
Ge 11.944924273226057 15.262866726683972 8.088591020075066
Ge 14.966673556331415 12.175506944347891 8.289423994361345
Ge 8.387538728475882 12.383051745671212 12.160537858707551
Ge 8.94660674309775 8.923142065004065 13.509069863180315
Ge 10.08034956031796 9.254080361780662 10.675482981720783
Ge 16.62929305126778 14.737627595965929 8.550488346106457
Ge 5.510846083197229 11.396713964825873 12.438288091996903
Ge 7.2590126009378695 8.69791714538001 9.54606769856662
Ge 14.466001045521363 14.567103483031788 6.467536647395275
Ge 6.147683833933767 8.387726242626908 12.373583780147776
Ge 10.321546494336982 6.607763495714817 12.132364798165288
