35
Energy = -138.61545705 eV
Ge 8.117813479407973 11.208622327988989 12.79518081848665
Ge 15.66096681817515 11.86819970116301 15.581809998306005
Ge 13.357637764951752 10.668915187655049 12.467613232686498
Ge 8.313797740010697 13.086254324077244 8.671093994067997
Ge 12.410666626222692 16.978878896799973 15.73771369301006
Ge 19.44076645019026 13.817671513393577 14.376721076811185
Ge 12.29016724898524 14.388495779643744 15.433703256572336
Ge 14.344439283709368 9.134568750566315 14.248291040028343
Ge 17.6559784048228 13.586083893807523 16.44665561216698
Ge 8.942712882580865 13.102105705574212 14.677020338498552
Ge 14.159172534099445 13.35802853085351 10.599821500995294
Ge 10.159213042977711 13.819811976518722 7.172594981561945
Ge 17.505736006775287 14.0155792162893 12.575942560314834
Ge 16.01296243273563 11.23109361460759 10.798667356346535
Ge 17.3291593148282 15.787853834605862 14.923556104070109
Ge 15.041477104493339 17.045832933262467 15.730251343603888
Ge 13.714324983114988 15.741164149721836 13.599541931084167
Ge 11.489135915592035 14.239718012962078 11.916943588859056
Ge 16.238381066376025 10.627977199624233 13.313544380299458
Ge 15.168179253574996 13.167371698045757 12.986946848681441
Ge 8.734283988727197 13.179902754340686 11.189614957459538
Ge 12.585342183943947 11.786563712909086 14.732183823189283
Ge 18.817397911597496 16.142573049637896 13.0033297271424
Ge 10.736569688748935 13.98697310900271 9.457337047788364
Ge 18.29179225360417 11.511169677864888 14.767086006813008
Ge 9.322509731502896 15.223706696651012 12.967740899587163
Ge 13.832783701951518 10.387495562836605 16.502095676781487
Ge 13.59446878060133 10.867980898123013 9.972445899503082
Ge 13.664860005675058 15.351830676124898 17.54331831353651
Ge 9.873967266220395 15.340144005224117 15.482671792375953
Ge 15.072974745699815 14.398332304275128 15.563615908350677
Ge 7.010189886703255 13.811030617492426 13.062983568423267
Ge 10.79479249256451 11.7748516168536 12.395846279968243
Ge 16.745473676943277 13.572378491737803 10.123148730154
Ge 10.063338774444649 10.814137565383731 14.73174661553222
