36
Energy = -144.47693878 eV
Ge 8.800392954908057 6.851512904351641 11.58481793649522
Ge 11.123495509939241 5.778507869736215 10.850925050568007
Ge 10.049551646929869 9.87995015501929 9.895227817239244
Ge 7.5375787868136825 4.898814434814124 9.848267836028562
Ge 7.733886219648793 10.640104381020722 9.087527400856795
Ge 10.032957920244815 12.462593571554008 5.908069325806403
Ge 12.007232241677936 8.287132876067343 6.8936894195365594
Ge 9.0713385243373 14.528824818579759 9.913924135478352
Ge 6.414891145482657 11.148409524192097 11.328286208453891
Ge 11.029209989984825 10.807937761653445 7.748993581261643
Ge 14.127714426481859 9.791907850834841 9.73322704199205
Ge 10.369272208032868 7.883580952371056 4.967509950618863
Ge 7.529507887416979 7.5410816327215295 9.20156126819699
Ge 10.881240355267582 7.569165009458205 9.053864544213807
Ge 6.8033871103150805 9.824733209379994 6.861149897385796
Ge 7.125845191895216 8.768428405712944 12.233901535308375
Ge 5.521931279740458 9.143562070192912 9.7882631757914
Ge 9.159814412799227 9.9215471976733 5.909155850591559
Ge 8.156930443119325 12.934290499985512 8.04418887541807
Ge 5.4282402962781 5.7660199746614405 8.755036851417481
Ge 9.138567757950126 10.71142993325406 12.29566829136001
Ge 13.561048987773026 10.345444484791837 7.231943202200152
Ge 5.197492450512416 6.806118438616605 11.202222904203179
Ge 6.037428827669381 6.939264593929155 13.642143458253086
Ge 9.908563853606312 4.980141156867052 8.628027274898368
Ge 13.241206444403929 7.44921737128445 10.732483789540623
Ge 6.438131145382393 7.195396688632831 6.689633056534156
Ge 10.93724668609687 13.632625192278311 8.198498128826907
Ge 7.357521465954198 12.170357859096644 5.705820489410033
Ge 10.65798575789984 12.619380855122365 10.860143351432164
Ge 7.222359087992118 4.9842364438161 12.416774440636242
Ge 9.047478150358833 6.801534310322174 6.904810879325121
Ge 13.124554920854333 12.291450296287925 8.915857946806822
Ge 12.036649148245527 9.496706997641981 11.500801758173573
Ge 13.163674019698078 11.788644420711531 11.542321707028284
Ge 8.136654880075804 13.077240502292813 11.952514985994478
