35
Energy = -140.18552856 eV
Ge 9.159821027079092 12.040366986988486 11.738312753432476
Ge 13.596418851038102 9.726810934528634 12.540358769091885
Ge 13.345061564460654 14.809661113297317 7.944117698634054
Ge 12.274629212143049 17.096367223335964 9.169155173845411
Ge 17.579336168505144 11.705920949295852 16.19629724343998
Ge 10.57902460795275 15.318390645722875 15.558223528097201
Ge 14.236099550269213 9.22195256086083 18.768349833801818
Ge 15.718005312827124 13.063459607304488 17.308241383509174
Ge 15.97633072187205 10.077208682177835 17.091767444429234
Ge 13.811580737995504 11.721252358190045 18.432524385314633
Ge 15.121885826253287 9.665129795632806 10.365790266447114
Ge 14.86190441367745 15.674671622452362 13.478377498197236
Ge 12.620114290156728 9.117898516342532 9.775708989822995
Ge 13.03736465033566 12.432584213906246 11.968039189223976
Ge 13.455087669155507 10.24015812549256 16.11336274284258
Ge 12.067023882877683 11.78938459798508 9.399315739783708
Ge 10.089989895964399 13.3735945869625 9.657911672112862
Ge 15.486409849354384 11.754652066238474 11.97684351137568
Ge 11.290853097043666 10.511084597627613 11.54430923060828
Ge 14.134368648752721 10.857085191728487 8.16112081532232
Ge 14.312498255997083 13.955063042208451 15.299705433780106
Ge 11.873001387611001 9.088044688412845 17.608606775646624
Ge 15.289549359969989 11.640712392098289 14.709636817966313
Ge 14.715789591206082 16.904658522509223 8.513116996635908
Ge 12.508401225837975 16.27653328901345 13.951521582811932
Ge 11.755653614960318 14.995043829275644 10.6341643993882
Ge 11.962839420305963 13.122568167872572 15.455484510556019
Ge 10.84004541324245 15.268489122464688 7.892592352231241
Ge 14.350336597645915 15.42036327730274 10.678266444180874
Ge 11.461085916530509 11.769533096446976 17.53203633542747
Ge 14.493286919226097 12.97243993918773 9.676393936247292
Ge 10.897721998403814 13.38839912709945 13.14029354644964
Ge 10.790423272589932 17.8857336419083 14.662006353797544
Ge 8.567588881695515 16.4114627188389 14.555747145149814
Ge 10.216880030155089 16.00238043943595 12.656424020080559
