32
Energy = -127.99041327 eV
Ge 11.421054611223603 10.4027193762702 13.735871087941222
Ge 7.15310723457236 7.928413384586622 9.128001094225013
Ge 9.453081623514578 9.55074710133361 9.446952770634985
Ge 8.24003474520391 7.568939480987506 13.463381183726284
Ge 5.714435204068914 8.008091660880485 13.52551879644004
Ge 10.65595798070118 11.904517163319564 7.285736377736248
Ge 6.892323134029616 11.597995425271812 11.648993530106111
Ge 8.136969558801693 9.540152604078196 7.238548888417907
Ge 6.415388230313219 9.050231614674104 11.309154356505196
Ge 13.279154822172204 12.787633398272117 7.596296214784409
Ge 9.381672702120675 9.336004502908919 14.972863264185428
Ge 14.337945858934933 13.540068630113653 10.067105603661721
Ge 16.046593940253143 11.483530595183801 10.35215299258647
Ge 7.768700357983472 11.642578528146275 9.086349332006783
Ge 9.268177300256976 10.072767743425793 12.174633666748495
Ge 13.499012877616899 15.214548181049938 8.249776186889184
Ge 10.974086230675507 8.892031199055433 7.388096260872819
Ge 13.081172089320448 12.833696536006093 12.181658146211856
Ge 13.326789307926614 10.206061767389231 7.750446340601351
Ge 7.137469272465718 10.116522325643535 14.020125020986539
Ge 13.542904669020102 8.952162671934216 13.807063011324212
Ge 11.104081213868302 12.908834622738627 13.731463620099468
Ge 11.052275467766218 14.303543623411361 8.19512245559284
Ge 11.319704593423758 7.570597815040645 9.725936090800841
Ge 9.227602743289564 13.043398715974954 11.883217176775222
Ge 14.690224195303939 10.828776796060923 12.421265037955163
Ge 12.837318787801223 8.771469339147815 11.378895117192233
Ge 8.771842076751579 14.107047281972385 9.567075191234288
Ge 14.899709190805975 9.253094368517152 9.736987036481073
Ge 8.934395143488269 7.372828048462059 10.886695782747907
Ge 12.9215664867642 11.156953322265846 10.119746522944626
Ge 10.429723994693267 12.01457586875706 9.877860005195727
