37
Energy = -148.26905671 eV
Ge 14.160983456594881 9.949244707491452 10.820529796743669
Ge 13.217322295293256 12.12469178692988 11.701067678282012
Ge 13.810906211864548 7.963337470037329 12.29037317804693
Ge 14.857859354991016 10.135416168731789 8.418436609253808
Ge 12.516933632777116 12.102593446980038 14.17293469140735
Ge 12.235854552843072 9.624686681227272 13.504546678510822
Ge 13.186532696630723 12.047740154294035 8.109626232651504
Ge 13.084176673090633 8.406486363522774 8.06367179224278
Ge 13.30115767942574 13.98319650455158 9.759808324642393
Ge 11.974153748385879 7.402662979127493 10.549793024470215
Ge 10.00626394944619 9.840915840736217 12.052114606005606
Ge 10.446422441029833 7.91658909062673 14.28364336798145
Ge 12.270849171128415 6.005479328381518 8.368597260690052
Ge 11.357164082909836 11.540819616582949 10.077262951921059
Ge 9.672367869173806 7.082475877605688 11.766010444955718
Ge 11.750366631152776 12.156039748929032 5.956869189684486
Ge 10.018136343237757 12.124619323553237 13.467198238687468
Ge 11.404974641232284 9.538570165275088 6.384926779655317
Ge 10.524429553139989 9.256645035601892 9.108835892101181
Ge 8.792957138266477 9.847971435553415 14.54500233715173
Ge 9.613797702499962 13.559700274610218 6.489990816069902
Ge 10.918295656054571 13.78911820315945 8.667273345778636
Ge 7.781975952305027 9.664392874458464 6.342621759428593
Ge 9.509809015699101 11.207467664693404 7.46172137019772
Ge 8.15320846893485 8.147456143884444 9.555877712545596
Ge 7.75977871283586 7.030225078208455 7.042355554218969
Ge 10.346261649965063 7.389655219241454 7.184909587550289
Ge 7.5322442002690035 11.231109818743317 11.023668411332412
Ge 7.533428962230466 13.228541075939413 12.921786425950833
Ge 6.343125186697317 10.90255796098755 13.519275887350599
Ge 7.570040570695934 8.705310737267368 12.483843668577459
Ge 8.064823250593113 12.159289120754792 15.28785063959535
Ge 6.272015463282886 8.17345834131883 5.023775659836398
Ge 5.814185705932064 8.929047515895324 7.750376126631484
Ge 5.266060141244605 6.587299869097669 6.882229506132641
Ge 5.872580210329658 9.45841307972509 10.42363271661335
Ge 9.34795162272998 13.076169891189503 10.82695633201734
