39
Energy = -142.05983446 eV
Ge 11.177996565246154 7.484810781900085 3.190177694756239
Ge 7.454246774075796 6.085442149339819 3.261289098340226
Ge 7.5889474880909065 9.759487276761634 2.472063531685671
Ge 4.643630386877598 8.937414257053536 2.7867873411618187
Ge 8.493833777076416 3.397946148371511 4.1644515085565486
Ge 10.803682595725492 11.349254645718649 5.28683713722867
Ge 9.0303426088214 8.757848635730117 5.0059792218959
Ge 8.193805441404528 5.505001204594536 6.39441505075794
Ge 4.483423532441742 6.0836945140746215 3.9089285922722334
Ge 6.454649175824493 12.345253762134108 3.7103670713928696
Ge 4.029246915505992 10.908256075027177 5.013747740924266
Ge 4.685888426421798 7.265753355586125 6.7129171302362325
Ge 6.655801367931334 3.080024549614294 7.932469487791543
Ge 13.107972818820633 7.305153101986249 5.537488792582814
Ge 6.733973569233475 10.987176137445047 6.395927484725208
Ge 10.039794536064669 13.146280027894859 7.691264306674889
Ge 1.7068256939906952 7.516904319983426 7.205856691011641
Ge 11.348143594548032 4.468149709880827 3.845985130031493
Ge 11.29553250259496 5.17219305090812 6.849102040395145
Ge 12.90820013798715 9.986425852263702 6.986938011158154
Ge 6.996396237747905 7.305349795636754 9.537581682683326
Ge 3.224362689538125 4.906925847179476 7.950622008466999
Ge 9.108360568107786 10.66105897261219 9.141848180948186
Ge 8.437370591087186 2.1301640342222314 10.164393233872929
Ge 5.0833941319432325 9.788738414980957 9.421049847273652
Ge 2.3064792240725 8.686310574148104 9.97941763661558
Ge 11.360253596359982 8.110184152446859 8.975047214234074
Ge 7.000153858147851 13.639670116094164 7.899262239965767
Ge 12.51436963151187 5.481054665241183 10.339023599496661
Ge 5.718711688008585 5.887634851983565 11.898363100554066
Ge 9.453266361458732 5.027691539502234 10.490051797323515
Ge 5.628993782564696 3.02036079109782 10.804399318899018
Ge 7.599432110158269 12.666218856029818 10.81800915072298
Ge 11.083475148593278 9.913456133566738 11.42591022545145
Ge 8.284245400773809 8.555216492040433 12.151794815044708
Ge 2.8565379074738138 5.816911569370783 10.828475857746028
Ge 5.8228467473424095 10.612743539517938 12.213980111148839
Ge 11.980618277567226 7.089462559318545 12.817872155458263
Ge 9.350438495572648 5.804021895455096 13.43554911722743
