35
Energy = -140.52061066 eV
Ge 9.017582318994055 9.160064186476742 11.109189260110648
Ge 11.801498447867367 15.654326301367616 15.967041544579091
Ge 8.82326533563111 13.543057769474727 11.14589849446121
Ge 11.030328187101082 16.412251882913463 12.935246949054168
Ge 8.641157183793347 15.831329496043706 12.438590383031377
Ge 13.6662972279183 15.696080025719365 14.173464059866138
Ge 14.995242403376052 17.041495009100757 12.409604767627616
Ge 14.855897966802436 8.916599333449838 12.999414840990532
Ge 13.262237607426982 8.053048967074758 11.15753421514788
Ge 10.55635793743193 12.743408269741954 13.029192728945954
Ge 11.214827833309192 9.009776788385603 12.479184215403619
Ge 16.157421652261995 12.394954849236962 11.262860548133546
Ge 13.93863240870651 12.13220128605031 9.830693499991675
Ge 18.30585722931624 13.707271918900382 10.963907516807266
Ge 16.646914728492376 15.036980286915767 12.311179602546577
Ge 10.778916766508576 10.439836393782294 9.699077241788407
Ge 13.677666642389218 8.86804417278266 15.323110471695639
Ge 13.13768608633115 9.73727979784631 9.073934646171148
Ge 13.148197866933335 10.668873949829683 11.83712081036126
Ge 8.311452848502778 11.343431074826691 12.535036368008074
Ge 12.947310202311737 15.857034231821382 11.433286380966802
Ge 18.175241781680707 12.88075686195671 13.427114114530028
Ge 8.240217817566199 11.417364436029269 9.784335820116091
Ge 11.624283889331435 10.921717458705333 14.561948435170654
Ge 9.777361105632016 14.509438672327423 14.773774444749078
Ge 16.91423223104667 10.597194878544714 12.979096763692793
Ge 12.081837143895758 13.450561665982459 11.085484099367072
Ge 10.034819386016464 17.293648420464294 15.032452604689224
Ge 7.748931924274879 15.981909945071463 14.89799811087406
Ge 11.082941082342687 8.540435140713619 14.994914628621052
Ge 14.475695800429445 13.453835065567391 13.17647872233757
Ge 14.226095667014269 11.199040695549687 14.413519710401696
Ge 16.219372628640077 14.809446823220954 14.846589203123484
Ge 10.421387515886986 13.06471534963326 9.098990460228144
Ge 16.520434650872595 12.186027928735163 15.309779613869933
