38
Energy = -152.88801241 eV
Ge 5.379510269621898 9.062060614163373 3.004511608739292
Ge 8.289206195687807 8.56103618296956 3.0182992684184917
Ge 7.2990982063802035 10.71266328880436 4.047791900756448
Ge 9.566983637175646 5.0543446876017235 4.820457562312506
Ge 8.782502483473094 12.48398624278329 5.327537232682972
Ge 10.669966860491584 7.411376278127147 4.6177314456161
Ge 6.658083271624302 6.965317354134052 4.295444299874197
Ge 9.692299502852858 10.397716836022493 6.488401552727401
Ge 12.061927923905083 5.079396553792722 5.710355931141009
Ge 7.115619879251517 4.445121523201685 4.411313667000471
Ge 5.413114795916168 9.959205998865114 5.614982513509527
Ge 7.865271535025611 8.747667242662851 5.790685826894959
Ge 4.287461449201933 7.6940272805089975 5.158196586120117
Ge 7.549116106861397 12.094812746808577 7.560667254323593
Ge 9.936151311009969 3.9338477505818212 7.2517336663103436
Ge 12.206441406945862 7.572933844905114 6.745222553186571
Ge 9.560571446749233 6.690249854013741 6.949256756449221
Ge 7.137246945250653 5.01321231442717 6.9249408083752035
Ge 4.889244829443783 4.380741244323126 8.487378131828564
Ge 11.146168166365612 10.089659777042455 8.55761357701034
Ge 5.027281591779447 11.442397510636102 7.614460614827554
Ge 6.767591911090781 9.308452486021157 8.337169023534235
Ge 7.971143641001489 7.497589945493357 9.851059514589213
Ge 5.548969090618671 6.964956624736864 7.4384709316925735
Ge 7.577751261000977 3.5265258372363397 8.99209064548883
Ge 3.8831820008938345 6.620615287415852 9.634384295521045
Ge 4.203709251980625 9.309001959481902 9.19064310430854
Ge 10.485802495794049 7.640050363056137 9.233118041672924
Ge 8.800131910857102 10.82001682479591 9.352852048750389
Ge 9.421519070987198 5.086017785966971 10.205511856744954
Ge 5.774287227095047 9.602906154079957 11.08456898684973
Ge 11.783393261089085 5.371323366415527 8.49480033174414
Ge 9.232591493858465 8.45591236110696 11.830295382734562
Ge 8.074060518994253 6.175444261053383 12.523497396327082
Ge 7.910290071014622 10.780733390269505 11.930982887973702
Ge 6.395030863149694 5.6000605312837965 10.344112696903702
Ge 4.969942905410045 7.114538325718873 12.073012611226366
Ge 6.848716581232289 8.515460740574266 13.2678288569159
