31
Energy = -123.34415209 eV
Ge 14.748471844332261 16.538093691967045 16.900737321873002
Ge 13.631031064782931 10.84699113702984 8.18693989299691
Ge 11.025121241275322 12.249061375393778 17.18612085257278
Ge 11.346757479467213 12.341654826000259 7.7584795811056235
Ge 16.62394834459084 14.786916413761611 11.664628576481773
Ge 10.04577422278067 12.602077590400903 10.276476321749696
Ge 9.862392631196693 10.030621735726664 17.24296133826878
Ge 14.721210977423675 13.349304217654929 13.257980955767787
Ge 16.918291643152216 14.910539328898048 14.181184922169585
Ge 15.752198303115772 13.223944541531775 9.678110041583848
Ge 9.42086495594194 11.427372072284822 15.052337581414736
Ge 11.722308880806024 12.320053396725614 14.283211115925353
Ge 16.344435870466913 11.890440152863974 11.858666289669634
Ge 12.673620775099813 14.976113419774634 15.549519533333834
Ge 14.63219717052622 16.42777116871022 14.385683577911907
Ge 11.214171371544385 14.702425232370397 8.879259596479136
Ge 12.509771295036382 8.906778657822098 9.961690139102691
Ge 14.173802318501084 10.725411554421859 10.955656410239788
Ge 13.236172881967185 13.442004769256368 17.771661442761427
Ge 12.675058993816583 15.848901095268502 18.376232130638254
Ge 10.677668609504645 14.852408245997786 17.174587889311052
Ge 11.616226205063091 10.967992819158104 11.786302083688257
Ge 11.277404400428605 9.574485115602872 7.717186367565251
Ge 15.176141233597237 14.009077560879199 15.954529179501522
Ge 14.227579487053571 15.497089564679083 12.005198777346761
Ge 11.978290059825802 10.160584284322777 15.66931650888893
Ge 9.066402678739536 11.154954467147805 8.226133653398392
Ge 9.98481047336153 9.669762473275334 10.146367667950377
Ge 10.427543844736821 9.509787680674412 13.789654236692222
Ge 13.72964706763601 15.15155811214785 9.503941619402674
Ge 12.799088355665544 12.754405548622225 9.965765631073142
