37
Energy = -148.20418396 eV
Ge 3.465035656170658 11.145043275442449 10.108649716231435
Ge 12.054813499051123 12.768123203809909 9.845001394041557
Ge 9.251869722394096 11.49706250119737 12.075081785959648
Ge 6.9334608161643345 10.953361532872048 13.095704297487272
Ge 9.620853786429828 13.531294196093242 8.14686303526564
Ge 7.168917672477406 13.222981690083142 10.841085401162676
Ge 10.959154886072495 10.012851780012094 13.508270595210952
Ge 5.551414547874922 12.3739725550001 9.00783821748316
Ge 6.089257967847521 7.430649941781335 11.52321651008131
Ge 9.84038068970808 7.94141249731606 14.618944731393661
Ge 4.9881773722651195 12.265099275342742 11.84212718719668
Ge 7.796308922833786 8.424080220201846 13.14267639040829
Ge 13.557946197448679 10.661351408242755 10.186187857097444
Ge 11.320248142387115 9.919312025261181 8.933258412746673
Ge 5.524967188814026 9.831081340726524 10.803742379177086
Ge 9.057896517061359 9.980141141286236 10.08770244247651
Ge 11.826765071626763 12.274841016225036 7.443919963560856
Ge 8.948802554931984 11.215314071954303 7.496916424950143
Ge 8.970922279688146 10.009337914202492 5.29071734474281
Ge 6.8960580647939915 10.145354593354318 8.662418393892553
Ge 11.36159073156215 9.251483929953995 5.835368366010467
Ge 10.471530249741228 7.195817454636869 12.310536067172222
Ge 6.744527737700863 6.027714578433593 9.446255033580037
Ge 11.79952575728647 7.380538046909597 8.426403052494079
Ge 13.907987298167141 9.405648550199098 8.002070728978078
Ge 12.331195142387058 8.98019178511976 11.660898409551653
Ge 6.692786998461976 7.832093423180097 7.5978702401368565
Ge 14.67138302481292 8.074514396424338 11.205063646302035
Ge 11.544827288749076 6.736134491045607 5.942281601356432
Ge 13.341840100743775 10.869148648747817 5.903008477285987
Ge 7.0369038992020485 8.146753621405246 5.045997419976889
Ge 12.664280634062255 6.391730847547205 10.728211176555696
Ge 8.656371559257048 7.575251774964967 10.574453042223288
Ge 9.013625270853964 7.229609709356391 6.147055832619238
Ge 9.22171336828852 6.079329114838317 8.485689551910182
Ge 14.501342746423811 7.0517772396521226 8.729350542773645
Ge 9.80767387851148 13.761953449434023 10.891521572758725
