30
Energy = -119.55601607 eV
Ge 10.32831206673409 7.55885623536014 6.142093876609212
Ge 11.30158450312865 12.257961039663698 6.4306818743700065
Ge 12.112167753968507 13.838487193267103 8.327522954513341
Ge 9.981434726868029 10.056575523950247 7.052146588178935
Ge 9.45267106705276 13.24387778071363 7.971872417405178
Ge 6.667038173977575 8.059918364773651 8.17522190120025
Ge 12.43450396176147 8.479954613437007 7.438119131634322
Ge 9.212393864158699 7.47485423480173 8.453800039068604
Ge 11.555133031900324 10.931040075045633 9.095899671844084
Ge 6.014948447172057 10.29260889169757 9.514367804818407
Ge 8.496513362008377 10.851586234518935 9.11870966415669
Ge 10.154152132453413 15.110228333594987 9.51390522439404
Ge 6.998669167231541 8.099779292463252 10.642813900468632
Ge 13.059400377639287 7.161951901130949 9.779343464907527
Ge 13.935361754180665 9.69833628487084 9.552242162823049
Ge 11.486325729186326 5.966075528584703 7.946743017022202
Ge 9.908063288518218 9.298011881615427 10.767388612119218
Ge 10.303792752325007 12.785248629130102 10.637117821592534
Ge 13.746239021394281 12.299650905583952 9.98682302834047
Ge 7.875555630505659 12.041031706094822 11.666513785090403
Ge 12.360847790888227 12.80655910907048 12.34165912842932
Ge 6.093114846570787 10.114900342485111 12.197069210004866
Ge 10.599637849022672 6.802598970600121 10.525036840555725
Ge 11.468073252131017 10.133969654885583 13.005760892724519
Ge 13.765004743605246 10.562304798761483 12.05446479238756
Ge 8.669245806707691 7.3241606058698245 12.332377709487192
Ge 9.360202602455129 12.309653747309712 13.829892125944893
Ge 8.53779721346547 9.83991301096622 13.16949067617135
Ge 11.616143973155756 12.33051320127724 14.860882260126107
Ge 10.253330122214152 10.017050920857619 15.21769843599336
