34
Energy = -136.33910399 eV
Ge 17.36502604268479 13.130835932984771 13.118676954736497
Ge 16.48228168228974 11.564189023493304 11.278226602555948
Ge 15.719984332258806 8.938504164443748 13.032198521447924
Ge 12.627738804221192 10.869789121088756 9.3099988453565
Ge 16.776759690618608 14.488185177080583 10.995139432712978
Ge 13.53555854530297 12.977616889519812 8.038057638111432
Ge 14.01826569561611 10.80864907303243 14.082768756088196
Ge 13.797462489019717 7.628329263551536 11.727128211214609
Ge 15.674198092400374 12.94058371902796 9.207837743943491
Ge 14.128345142338498 8.197602555029443 14.922373338976184
Ge 12.81198364853563 17.227216235044626 10.695120319742662
Ge 14.673827739087944 14.147989748611995 12.349506895225934
Ge 13.074476203415443 13.10557591698955 10.613997581126156
Ge 14.136672639233133 10.359407496152912 11.355682924698575
Ge 15.207484570729195 12.944040047710835 14.70308208623872
Ge 11.369859755275266 8.945090190853007 11.542077093267077
Ge 13.43114303926206 15.041634912154015 14.58741565844033
Ge 11.794730260711775 16.49351005523507 12.947433162112969
Ge 10.416133935798026 17.34923291518232 9.581132541109998
Ge 11.907880739312995 7.168715355828754 13.519705055244357
Ge 8.789620783072468 15.192850671884267 10.171107994325522
Ge 11.315714274808824 15.026863164387684 10.663022989200245
Ge 8.58983992303125 17.501227973065618 11.584543632329156
Ge 13.175243039111729 13.09100720644908 16.444992586392218
Ge 9.334707708168946 15.064859617677305 12.75834947756413
Ge 11.396923135434077 13.621554815255045 13.512079004682066
Ge 13.103649366074285 10.23066076461468 16.63742168450615
Ge 11.825763449697435 11.192530368106622 12.74787667439328
Ge 10.885608636643305 18.82455597681566 11.871766498414441
Ge 9.670725582684609 17.39354319118685 14.002729944462583
Ge 11.112416700343022 11.785816896683937 15.454947934347992
Ge 11.782421051063919 7.642226914374395 16.0235824243215
Ge 10.462714127944349 9.817370698469825 16.880547837287292
Ge 10.30196851037863 9.26709393671485 14.191041636910592
