34
Energy = -122.64591057 eV
Ge 14.25022742828923 10.185354966709724 4.508462437780248
Ge 13.464097043983896 12.75150285243038 7.855457957337962
Ge 13.110169707334462 16.76881207862919 11.070439967442862
Ge 11.488979836858354 11.32932791470762 4.103981921507112
Ge 14.573705335532024 15.0045986540946 16.074410276194303
Ge 13.433270512945516 8.461604357187118 6.868586837802714
Ge 10.83669547616701 16.596731904815964 9.277258522829236
Ge 14.982241773795188 14.000582466161392 13.230276127138618
Ge 16.686765797803126 6.32781714008381 12.033415450107919
Ge 15.815769346726622 8.180320058945549 9.831634090899902
Ge 11.87752252899573 8.33475812593006 4.25873487605305
Ge 12.099991493961161 14.016398080101816 10.279441982711836
Ge 10.660285537561226 12.329118966507206 6.8599242450480595
Ge 11.885279243498417 10.31869112670468 8.735730334454697
Ge 12.273706739606686 15.066500630796362 13.996151151821685
Ge 16.085159505805404 9.252557347025741 12.680200977894373
Ge 15.288136166420045 12.12150812583229 15.611559892658256
Ge 14.036239520172304 5.825484617072589 10.617933181911555
Ge 7.943115119687997 15.92064184378618 10.817368022669513
Ge 13.13125981767922 10.003708322193152 15.993110425224641
Ge 8.539697851619344 12.953750240969478 10.605522752705257
Ge 13.065891154808606 9.53055449674611 12.941710959052116
Ge 10.284441573654687 12.688424099896151 13.75953941196933
Ge 7.296782897510546 16.546218154360854 13.719587570638062
Ge 10.299521198874908 11.080783378268553 16.336651704594534
Ge 12.563760321453245 6.576169962090466 13.181451425969955
Ge 9.95092765580901 6.491178593810816 11.446781548735443
Ge 5.782780151135071 13.990154731413638 9.751508956992524
Ge 8.613927191606905 14.473637217885335 15.535954106405372
Ge 10.005688603138276 8.538421305640629 14.548264701876285
Ge 9.020382981719258 9.369582349608011 11.811932008304865
Ge 6.02474956526065 12.182856880443582 12.148720173409302
Ge 5.773580258254703 14.097385322039447 14.50808885222174
Ge 7.58976429233217 7.129389888055644 13.239613342218394
