30
Energy = -108.89884426 eV
Ge 14.967416782077374 11.876440990027882 8.057399735303974
Ge 8.8119280505921 10.28898291692535 5.9829991503960205
Ge 7.164972792332692 7.8828138135819135 6.82260994438772
Ge 12.321313604005088 15.096897809546816 9.576315551020054
Ge 6.241586922830425 10.682185967974432 7.523094399289372
Ge 12.554953538819374 11.77959869706947 6.188680664411182
Ge 8.622598449927498 7.326031487180996 9.459468955107075
Ge 16.1264728620162 13.046407680773296 11.997472167199513
Ge 7.724111588439999 13.580583987503436 9.899015943824397
Ge 10.780903338683949 10.578423334228447 8.334850515864222
Ge 12.283516277104834 7.945096277828387 8.97557959219677
Ge 5.216490821803379 9.889460373423741 11.84982340839634
Ge 10.665605438234897 13.762109790402357 7.568982520886904
Ge 15.066738655289234 8.836389627999054 8.07550447681589
Ge 5.997520911212148 6.984894605143438 10.816341382571435
Ge 13.48777096744001 12.336129296580742 10.646828884403934
Ge 7.8394704814010945 10.376656677793227 10.212039064605047
Ge 15.763121318221156 8.28736585135551 10.99843365154646
Ge 6.710980357092377 7.867670555360094 13.635363138173634
Ge 17.649039205744046 10.427532791747527 12.009626847101543
Ge 9.90814292210941 15.119035171998387 11.433192241527635
Ge 10.328552591825867 12.287130146600987 12.503998383489877
Ge 6.012750648836442 12.970834165023378 12.343747272552076
Ge 9.457689699086878 8.871757750050378 12.839960021988354
Ge 13.050296099702797 9.371532320600545 11.72352828330966
Ge 16.161534804231692 11.342082129229434 14.498421513296671
Ge 13.671699036506242 9.603174488230106 14.771441740787855
Ge 8.199851895695154 13.122012085781284 14.447156365096761
Ge 11.85472290039614 11.955113305126313 15.211079768192974
Ge 9.23086863007686 10.378277496647739 15.469666007991812
