30
Energy = -119.97922961 eV
Ge 11.608365955630822 11.778950640874603 7.063604905801407
Ge 13.72632264231361 10.530238229153785 8.1960403177359
Ge 11.725799164355296 9.104076692209176 7.023584442632568
Ge 13.156692602310972 13.087953289018193 8.686719002420965
Ge 9.534139454868793 10.125841606979824 8.015937574136549
Ge 8.979178039206579 12.455022980591165 7.152434431042504
Ge 12.18868400265091 9.067503893583268 9.694913121101429
Ge 8.101640352943766 8.980031547999602 9.744408210959659
Ge 10.548124070596954 12.823652351503336 9.44416134379923
Ge 9.954849661598272 7.48352099876332 10.733325113198392
Ge 7.912689804629083 13.134437691530373 9.5649510327301
Ge 10.868972338400678 5.353233295609055 11.608857090311888
Ge 9.602014840881953 15.070930648282841 10.770402462936353
Ge 13.283850455056884 12.628454165692915 11.274759916052588
Ge 8.753578433333496 11.101927442177667 10.916613138826213
Ge 12.068798876803037 14.867767901698093 11.881822220449648
Ge 12.676229640308625 6.559173181964562 10.127337416572862
Ge 11.359753833188062 10.863072506906624 11.26052134819504
Ge 12.206118436505216 7.247642951220454 12.795975054120913
Ge 14.298298225630296 8.224773388730807 11.455067427713606
Ge 7.371467891844561 14.260366972583139 11.916599134853493
Ge 11.413324082419395 15.364875461669259 14.437913770544464
Ge 10.258244601016047 8.94198787099111 12.83768518969805
Ge 8.223244289338766 12.003131341517573 13.239268623916757
Ge 15.01779987006383 12.47902038591204 13.112430246778235
Ge 9.245577205270354 10.130071600639535 14.841060516170735
Ge 9.947433660727292 13.77386909247543 13.086902322983272
Ge 13.6971619569548 10.263459657694154 12.917343637338114
Ge 11.506861876096277 11.07804527486725 14.077642923015963
Ge 12.828968750299563 13.281151952405198 14.18590307920745
