38
Energy = -152.80419223 eV
Ge 7.947488402784543 7.831234427515107 1.8351433106394688
Ge 8.865081983699257 5.305659560056547 2.4216516659060443
Ge 10.066686289773505 7.3570405047900325 3.572203101722027
Ge 6.56460526839559 6.061791391543722 3.439736009706259
Ge 9.263592792749812 9.865634053277414 3.098934060041055
Ge 5.5540442524732585 8.636028543155536 2.6453895512334133
Ge 7.234042030808998 7.9314949721923576 5.026116396807796
Ge 9.029000633946405 9.767430564054903 5.704114186551845
Ge 6.735130430173113 10.559758436681802 4.261372252826887
Ge 3.971188461467436 6.817441277123537 3.728563991696095
Ge 9.302317011502447 5.124207809244509 5.0918958047157235
Ge 7.135699758677392 5.213175263693553 6.64463861335534
Ge 12.267173151412827 7.9393317629844145 8.057616686878598
Ge 9.921664817316968 7.375758058716074 6.335153766922903
Ge 4.920721330323149 6.559347171186816 6.184353513254747
Ge 6.040307545913969 9.341947725937333 7.835181923770578
Ge 4.212846459660054 4.284072833590541 8.430137802702163
Ge 7.440005020466012 11.368401978505931 7.029187265267346
Ge 4.676304754506808 9.050404660875786 5.213763767576664
Ge 7.749944216817489 7.369907422141328 7.983114447183213
Ge 3.171118796398264 6.89769899074045 8.165986385892845
Ge 11.709964412898962 10.507032142390344 8.121914753231216
Ge 4.153126066843267 9.044738102675874 9.44929488099079
Ge 8.099808451500524 10.531669368230872 9.577909869316363
Ge 5.396480495898724 6.444880094953074 9.525494630242957
Ge 11.182391857635718 6.850089856895568 10.303997830091122
Ge 9.93096302478528 8.7509692857447 8.98778980637172
Ge 6.729642348750629 3.513101641146773 8.741363185698209
Ge 8.926081621363384 5.195154200965118 9.131556674104203
Ge 12.434131303578926 9.320043023453486 10.521783448232062
Ge 3.199522485990341 5.529681690836962 10.751374688011671
Ge 7.638901138736929 6.937075169073481 10.816917353239115
Ge 6.274213267403088 9.1726955955844 10.941299868222503
Ge 5.436099577123641 5.865481985201959 12.197395509839112
Ge 10.520444953093866 11.22166064105707 10.426831656242337
Ge 9.966743534630458 8.830968235122848 11.672404911735267
Ge 7.519177105068068 4.28714295540779 11.31641081785929
Ge 4.930602509088953 3.4571061669102066 10.929263175578708
