37
Energy = -146.14448644 eV
Ge 12.658204239683508 16.9404069079436 16.89705646790637
Ge 19.714401266302996 20.53008141543001 16.721880250407782
Ge 15.548186801283371 16.665109718228575 20.619422632550723
Ge 17.02015408346528 12.709850003677413 16.922126646179382
Ge 13.61921709607389 19.96903376848144 13.316332678495518
Ge 18.718175699341394 12.734061419724624 14.16805120686697
Ge 16.507030540991938 11.431622995481108 14.462967448913584
Ge 12.630131870351436 20.22501406362958 15.546983627828189
Ge 15.977526727301415 13.961314193160115 14.780742381571066
Ge 13.835246996757903 14.737758524805992 16.066526231644
Ge 17.846345724923125 18.558673727814448 17.29293403874011
Ge 19.893359427842036 18.92991423460465 19.0996584908548
Ge 19.72003539212772 13.358832729229936 16.645848383331558
Ge 12.713331790816381 13.578578611859628 18.490981559463478
Ge 16.69591439226472 15.050765750705713 18.731956867779058
Ge 16.668657322904785 18.332102093657046 14.110692811398994
Ge 16.078915155039095 16.930070341090488 11.552511040356787
Ge 19.761510036314515 15.135334087015725 14.377272129704828
Ge 19.225946872107304 19.075298191641487 14.75723582028653
Ge 10.568449470671316 12.558341830154811 12.901787751775293
Ge 12.086735789456124 14.070773836823065 14.190032085681308
Ge 18.743766909173498 10.937020219658052 16.00418351323235
Ge 19.766877505505136 16.455017911622775 18.667131839348492
Ge 20.423051218171416 17.765411310177257 16.56737695533723
Ge 12.486345115730312 11.243214054302735 14.034105143665096
Ge 12.015837200096398 17.877159636238357 14.31197564569163
Ge 11.00063474917183 14.55371753418173 16.734194254936433
Ge 15.882270442104707 19.53090593040268 11.997492548160558
Ge 10.228179089691318 12.365336704067577 15.47104026928065
Ge 17.36985357906665 15.867712655753088 13.705968619381292
Ge 14.228050824539318 15.748752101989316 18.706523143603565
Ge 17.9396778932127 16.018816268842578 -2.4431160683012405
Ge 14.096106373416562 17.3911175183318 12.984255076317321
Ge 17.903154555688122 15.26798108785227 16.354826260529418
Ge 18.366927108048362 -2.252069864421224 18.795476871633028
Ge 14.48252076829323 18.426088097756534 15.583555538254608
Ge 12.73673319074573 12.222963739074379 16.33806306978107
