31
Energy = -122.75986962 eV
Ge 6.139211015248063 9.675139037970968 14.499184699780335
Ge 8.686951414560749 10.20753261047357 15.383405641907208
Ge 11.123027985943304 15.19413326975799 14.085342574645853
Ge 7.868911918886449 13.891855565456648 13.05566812484952
Ge 10.433651150887139 14.518250288998011 16.632237844198126
Ge 15.451041440453936 12.239149965632071 6.752749182149336
Ge 9.407342821296977 9.92922412977344 12.641415910376521
Ge 7.43515110997385 11.392840120068021 13.172931615371239
Ge 15.447144091498114 12.391213600644052 10.17865950460863
Ge 12.935270229807724 14.480075919689519 15.993652695588018
Ge 17.159268132398893 13.526986574948955 8.568176047124648
Ge 13.316983756381168 16.714676087815775 14.583854461059994
Ge 12.491496369181233 12.753803675346347 9.319821036111247
Ge 13.907423865894355 10.724446536891998 8.739148254605324
Ge 14.380182962651402 12.35653235134387 15.137298390730871
Ge 10.357196949081423 13.640332168696348 12.193695822902072
Ge 15.777059195289754 11.765861059712657 12.643745027646743
Ge 16.71374358551349 10.625136505730433 8.677495799453979
Ge 15.770381070798845 14.677312581648788 6.549330725085885
Ge 12.912262217592762 10.317162867669234 15.273554715238555
Ge 9.451389172456686 12.915133137882714 14.782003224720604
Ge 11.277469610170753 11.408521105016646 13.626269849487361
Ge 16.31230103423799 13.720443806907703 14.227637842454499
Ge 7.9813419453142025 7.987490293724664 13.952013241156642
Ge 10.421641182873278 8.380472370548121 14.511787411185468
Ge 13.995235383652949 14.502453262411866 13.28691115955492
Ge 13.716386329907488 10.21960954920474 12.765557926113111
Ge 13.016802095437969 12.586136892330485 11.830836046282695
Ge 15.031339727337066 9.813695641587534 6.713423590481259
Ge 14.401739622730625 14.271481753235866 8.571262678138625
Ge 11.093357880144152 16.977202011301333 15.903158501576463
