35
Energy = -140.5659713 eV
Ge 10.424146377669622 12.79428285304922 7.267101924503493
Ge 9.807367992932948 15.130961930237588 8.315922051850997
Ge 9.555796155898117 10.88246217986484 8.669293501415883
Ge 10.370842501432595 8.568222160256964 7.942011496438815
Ge 12.802765169341269 11.963632331087886 7.6464568076715835
Ge 12.746091204577851 9.44628848919254 7.678403594186695
Ge 14.927708011498746 12.853723318893525 8.755239119631375
Ge 7.987166842869194 14.224076166836896 9.903994207498323
Ge 7.658491897357417 11.748950880898615 10.040706595002849
Ge 14.958047665844722 8.45197732803154 8.639326014696309
Ge 11.452236535343806 10.009754959198956 10.225228429233244
Ge 11.053241749815323 13.385631036903613 9.743579318981055
Ge 14.225987430281553 10.56484231488085 9.889738532530616
Ge 10.882299701156361 7.31052400421273 10.144528813148167
Ge 13.365883070542443 14.036248013539149 10.412463985606848
Ge 13.339068055528406 7.8247894626740555 10.504193307002561
Ge 7.69209160370657 14.763652518600336 12.43201999824612
Ge 14.561936360532842 10.40889725496808 12.46830253335427
Ge 9.66608991563608 13.021385963374298 11.833032471905817
Ge 7.144208639391665 12.240693214954167 12.959494478611544
Ge 10.028997628236288 8.46696242027601 12.287503328898916
Ge 14.382939915737168 13.144080718283625 12.610374947714675
Ge 13.690676114959986 7.608970343343428 13.022495386785991
Ge 5.89802287081049 10.615204690045703 11.380449521416608
Ge 12.773341058172251 15.570079970608859 12.378788122383266
Ge 10.10196368280969 10.911076166385076 13.199546208716816
Ge 11.483013825457915 7.551105831318531 14.271628741318684
Ge 15.574729031598077 8.81701226515542 14.256650364437684
Ge 12.51128263728053 11.477717948326731 13.785047908926668
Ge 7.726624508459228 9.348198960184387 12.723027860091761
Ge 10.401579991843624 15.106580570915 13.380895603803465
Ge 13.14155332390743 9.3870688752006 15.015666458914838
Ge 14.558212719748562 15.159378266490458 14.197886156139914
Ge 12.367181599007925 13.86969952658604 14.58007962862908
Ge 8.159506081172589 10.756958935783413 14.860014450863844
