35
Energy = -138.60815434 eV
Ge 17.244416739572678 13.786909065131365 16.743945224421157
Ge 14.94645661798431 9.134386295255426 14.79108371837089
Ge 16.194667549692003 12.646937577773164 7.441896944036064
Ge 17.601366101369745 12.971177843315902 14.17441120353894
Ge 14.152525615091685 13.682091612070586 11.056588685176216
Ge 12.957003593238632 19.23426913570151 11.985860749275638
Ge 11.668961127414695 13.214712077457806 18.511136463263085
Ge 15.506196717454936 11.819299711432567 9.603168853673044
Ge 13.996626133188332 11.062130689977417 13.09710026325875
Ge 10.776981593570369 14.649934459816489 12.918537033114925
Ge 9.366626530292542 13.607695468865165 17.425067077437756
Ge 13.034018109315927 12.171425481304455 16.411895864959
Ge 14.339215115605667 19.580313508666407 14.07018840202373
Ge 11.781039967536568 12.810083699851157 11.363764317358514
Ge 10.730928897165091 15.763518691411068 17.75759420840814
Ge 14.794988942816907 17.22929430498182 14.85224405268306
Ge 12.433791438312026 17.61806266853873 13.970751869000404
Ge 12.381904227670248 9.996257919947134 14.839450062008659
Ge 9.49157020078358 13.467074565648723 10.670681616091478
Ge 15.037780035640058 13.624289342389774 15.081842031976114
Ge 13.00159005802987 15.81531916021419 12.086056880842417
Ge 11.170353518959908 13.918247770208474 15.6945113274164
Ge 16.238523541187345 11.778342050562275 12.10864840160909
Ge 13.423250663748078 8.228065742017764 12.647332089403543
Ge 14.945224995083645 17.55873067880256 12.311554443438643
Ge 13.910748943810061 9.793577493275599 10.574347823940384
Ge 13.017330640350435 15.05008984126636 17.18666189077439
Ge 15.368286824551552 12.256578797470679 17.63902642166475
Ge 14.659902671405625 14.179463302825098 8.615735120830982
Ge 16.470572824520662 11.241926076183256 15.585068209928624
Ge 9.13667466024389 15.922274905329145 11.51088860284965
Ge 11.650374488046712 10.241757190877898 12.124544311105092
Ge 11.314917097979162 15.418902703061997 10.148177457447128
Ge 15.464675275903948 15.772373366714154 16.827250654138833
Ge 15.970053788785222 9.105611178872891 12.285712019728843
