32
Energy = -116.09720527 eV
Ge 19.19995330714789 10.071419605991117 14.298420054092226
Ge 8.726130071752154 12.900380832558207 17.099930644487277
Ge 17.65631338300268 12.484754600068216 13.121373663441485
Ge 16.61358704642079 8.957204818350755 15.493468618012256
Ge 18.652684869842457 10.243845632680998 11.349003778774671
Ge 15.274483674201367 11.588115865823026 14.76798678811816
Ge 10.258172632893832 11.337469842515008 15.00055190959582
Ge 11.592761500036552 13.693158845661188 16.398897907224672
Ge 15.809080979781765 6.978440845668902 13.35972511617973
Ge 4.440244340129211 12.630477345092421 11.960492887504275
Ge 16.52226769359729 8.21219235359597 10.697479377990222
Ge 12.844377512378331 7.626544762612417 13.42047915686252
Ge 14.229739751603104 10.126853131910766 10.131197976320816
Ge 13.07292870592335 10.649377161071994 12.880658311849551
Ge 15.51837693998587 15.74570967986189 13.596718471472494
Ge 13.692818946336562 14.023968609264903 11.930880382216762
Ge 12.464528706595265 7.629845113086041 10.381727189508828
Ge 11.068057791810762 15.504621570263659 12.012740856168426
Ge 10.846504545719633 16.260910820161772 14.926077983412647
Ge 13.686481945568072 17.15742025631998 15.527835912963848
Ge 14.531493279862374 18.547522085296258 12.891546638160202
Ge 11.926850627557048 18.308558329615238 11.376496687287393
Ge 14.556528280522514 15.006095591530602 9.158963606319048
Ge 8.283340624589112 13.427191677368576 14.12759577586751
Ge 9.728011346305282 8.998707867379723 10.784590857297328
Ge 10.548350435177376 11.873222196585898 10.37344645620263
Ge 15.939762908180178 17.56629181904505 9.863268288382885
Ge 6.051234093643088 11.355652623781653 14.12626311159909
Ge 7.6145600125068755 12.170035931527856 9.548839473099838
Ge 13.181087350395957 17.647270141293063 8.673825780797698
Ge 6.071643144990022 10.210736205707098 11.299321606568368
Ge 9.476060847002772 10.268672325979248 8.048477818163333
