39
Energy = -157.20212552 eV
Ge 9.730084204919104 10.906165299628576 7.19001897870088
Ge 12.279906347277604 10.650239688113619 7.707614656471494
Ge 13.75983432412718 12.61928273800895 7.730450789522502
Ge 12.935264162454189 15.051040397161495 8.049777720809043
Ge 13.670722864160952 8.581598843933422 8.521468452877047
Ge 9.423816946161134 12.766492493904334 8.9769610002038
Ge 15.45792499733061 11.92381143980255 9.484869812577092
Ge 9.691765858466457 10.047610499728052 9.5530594835814
Ge 11.505592545496633 13.944669060316542 9.866988530896247
Ge 14.677219385806724 9.785167980867294 10.6371052225748
Ge 14.533589189095693 14.909484655587434 9.997168434627222
Ge 11.953712106475251 9.160764614124956 10.279366243008594
Ge 12.806222140929009 11.756755705872104 10.217812032922659
Ge 16.901476449855014 13.943597734750469 10.223018998185895
Ge 8.29680556587814 11.872109145589564 11.076877023080339
Ge 7.911160610931535 8.853589555127062 10.896663529965256
Ge 6.079017431950816 10.582206289090143 11.410402315533771
Ge 10.755932016646323 14.991328729527709 11.978991533746097
Ge 13.954351922268883 16.190362557529145 12.150581774164337
Ge 16.35107245281464 16.347601908360414 13.034739482046787
Ge 13.81008090289947 13.196401874269977 12.65460246137233
Ge 16.41869787730406 13.670663341789243 12.723747564226048
Ge 11.709844083529068 17.05259739504562 13.143303730642767
Ge 8.325175211987911 7.33727816433112 12.851940281607261
Ge 12.075979369994306 8.75579001390078 12.772634089780746
Ge 9.398716319630092 13.108206448734972 13.0332156715339
Ge 7.225956248863335 9.506134241260485 13.418721741540478
Ge 11.058594728145195 11.026018765949242 13.554536864316841
Ge 14.632750423990812 8.826968975625658 13.078894951186346
Ge 10.624062657592235 7.176511647659402 14.130571644452953
Ge 14.87713696091751 15.065714043740606 14.676301320320777
Ge 12.327907091630669 14.8047481390483 14.217354079248054
Ge 13.960198737635878 11.049423978079 14.095062435367101
Ge 8.659590040879374 10.830261116918807 14.968289788318602
Ge 15.846128793099172 12.680365620229818 14.935148060463527
Ge 8.384173391511585 13.34353090139849 15.386473309681067
Ge 10.50702113987028 9.327471582664563 15.604547013808459
Ge 10.93846001957064 13.098264947625996 15.48504661915416
Ge 12.337012375312039 11.052727362113975 16.0786302548937
