35
Energy = -141.18527514 eV
Ge 15.474412152519255 11.57225436191799 11.280253612723564
Ge 6.837478060489127 10.718138990857916 11.464040245694603
Ge 15.547573582156542 12.148634614395997 13.818255346396947
Ge 15.223955191266539 9.13087865013889 10.790288288550938
Ge 15.591145202469294 13.103595754406353 9.218438237211856
Ge 6.6517307986708305 12.763908825344384 13.050333107813454
Ge 6.918908166239385 8.158876998796023 11.845938629211059
Ge 7.622136375757709 11.228266121168305 9.072193012430429
Ge 14.116613331133989 8.830934604217507 8.465726943188734
Ge 13.895043258724632 14.42627140141859 10.626747890713757
Ge 13.50093750465656 10.63231812418401 14.07554968696052
Ge 8.135508921272043 9.11262765878326 7.71330395930653
Ge 8.314056433284026 14.059452599271713 11.587281590655323
Ge 8.8154929192062 9.026747957621495 13.136092860094365
Ge 13.851319435478596 11.40208021627923 8.274120773771996
Ge 13.732041856966957 13.667469935681247 13.024629247158376
Ge 14.04800123427611 8.31038895629566 12.984113523010956
Ge 8.667089145920256 7.950893327172669 9.993679071064898
Ge 8.296665189762154 13.67509768417686 9.074277240336183
Ge 8.921752669816547 11.608814136413871 13.10645765207882
Ge 11.749736656532386 10.292680778172004 15.884235475006305
Ge 11.824047243319054 8.646725874393207 9.520785097651148
Ge 11.424615601570139 14.96842400750358 10.16444490112697
Ge 10.080016478161415 15.873573201833002 12.123878799526803
Ge 10.593993918786564 8.310714877843344 14.64823916060122
Ge 10.237520169262542 10.299995439479114 8.452950406571466
Ge 11.489490281883382 14.41347888510777 13.669082936385706
Ge 11.565547623931963 7.739381189285241 12.364204914528521
Ge 11.614920895311554 12.215509512402079 7.552372526730016
Ge 11.024481256310567 12.118747060663415 14.341350570170174
Ge 10.762278605479676 6.485408968096032 10.281550134878302
Ge 10.438603310848512 14.465029798352019 7.8329694008095725
Ge 12.831573309369757 10.131615000948052 11.471546301107614
Ge 12.251757250818907 12.37788359254272 10.22854856108991
Ge 9.735165490649457 11.918790348664524 10.6477292807982
