36
Energy = -129.70848824 eV
Ge 19.915551863897807 16.12721976530296 10.211692856383078
Ge 19.641536430073007 13.867317786765883 8.304465316030289
Ge 20.79601757555219 13.375701139261494 11.01575176231605
Ge 14.894283174725242 18.051836371596096 10.789680441369555
Ge 15.873397253630017 17.53087430266746 13.581087319664341
Ge 16.90656352156484 15.67260065505667 11.226752834494459
Ge 17.81649742189276 12.662551278706914 10.5819537809211
Ge 13.110423240141902 16.720195252336094 12.76454389250635
Ge 14.535268737703731 13.794186503670714 12.3278453740845
Ge 14.251872955797449 12.17781771337214 9.190027914313223
Ge 15.701285133680841 11.03555322441429 12.269557270743022
Ge 12.268020625459807 13.63842925917182 7.190795512424167
Ge 13.537639919761597 15.0893428689173 16.091101876913584
Ge 13.622479709527559 13.709763638017872 18.821541372708744
Ge 10.19059313102463 13.591839360067654 9.40474905326077
Ge 12.033640866096807 11.963007720251444 11.252517527330152
Ge 12.863763817382571 10.776543912401062 6.648155960706195
Ge 13.298311483724662 12.033620239993773 16.25691018327814
Ge 15.923275796284734 10.46579522858675 16.646701001599112
Ge 10.010083487065195 14.316867064224258 13.4265421540806
Ge 12.047138350872768 8.901100321156045 10.651824542944944
Ge 15.904714985528093 8.395354120916963 14.388913319637442
Ge 10.702102402358769 9.166883402382556 7.904066453272918
Ge 12.953817816221413 9.443068631366831 13.908746816979908
Ge 11.005661464611569 14.811575304880295 17.7904112005378
Ge 8.580722813962751 11.256962240639966 8.37584694082784
Ge 7.336326397626995 14.452352089744423 12.040412990335074
Ge 9.746248471942733 8.594796536925802 12.527362940732365
Ge 13.90161134845208 8.229333928887469 16.64312219827357
Ge 7.633397582158627 15.416039848337757 14.925420422048242
Ge 10.047365557185815 11.393068718559537 14.425125241716861
Ge 9.72892594033375 12.061933478141668 17.47531594848361
Ge 7.481758939212846 9.704049561250226 10.738938010590921
Ge 5.916903999705112 11.796871721666955 12.314623588535722
Ge 6.909418919297395 13.082070143646058 16.7379772149572
Ge 7.117118142915723 10.732832272980211 14.843270115989222
