33
Energy = -130.87025839 eV
Ge 9.16996158943825 12.939539205561244 14.797023244314566
Ge 10.37625705739675 14.122136407403978 16.73560915100732
Ge 10.644913975554278 10.421173619414459 12.125843071646337
Ge 15.28053809274897 16.200119820118715 11.780721710635412
Ge 14.803221865635708 9.429155784318333 9.632599403809337
Ge 16.366508196167775 16.608494976475985 14.039724061300706
Ge 13.855819428021894 11.69558790145995 15.34224852240966
Ge 13.53622042053305 12.925902654054182 11.104447107664884
Ge 16.840869097060253 10.536027768551392 11.17852291663906
Ge 11.440265815004926 17.247099807473795 15.767887259138446
Ge 13.8804285045299 14.043775075527051 8.753037080051286
Ge 12.845238920816058 15.5244583408754 12.274170772147588
Ge 13.484745816152465 15.398086173257218 16.859048618020573
Ge 15.375690061640501 12.005827070741793 9.16150529671714
Ge 10.622809592649993 8.665199977832382 14.040399408003925
Ge 14.97378433382246 9.124626396817511 12.385245263872822
Ge 13.583941883971452 14.366653303535433 14.524685203291808
Ge 10.04936202720244 12.943682130345069 12.079564149690844
Ge 11.465705587094298 11.804520253621668 16.582970328462615
Ge 16.133903379468183 15.06039546989633 9.68734599420796
Ge 11.311419744541405 16.08481236559437 17.9789066767545
Ge 8.96239058823372 12.00951245240618 17.534852826115124
Ge 16.097693004017554 13.870183885356838 14.60071309102101
Ge 12.92448729707849 10.417514690659115 11.088366219590498
Ge 12.90551077852986 9.815510270171158 13.834813979480547
Ge 17.521973687697255 14.662240280798807 12.23186960893911
Ge 11.58087041169207 14.39511227743522 10.289736371158435
Ge 15.79866622462424 12.620327177055428 12.331535452149083
Ge 9.43750935653768 10.501901861362152 15.572804275521106
Ge 12.092666919861953 18.378556941141657 13.652405004161212
Ge 17.72720496384047 12.835950790587713 10.261195148992902
Ge 11.757982958012791 12.444458390892667 13.904026699539077
Ge 13.857675808177266 17.15698916828008 14.858922941418154
