30
Energy = -119.94537787 eV
Ge 10.834438742852464 10.641721007324444 14.617985953525356
Ge 13.663553226605075 13.452581146911937 16.987910089498286
Ge 12.821962205990783 8.675946021482458 14.591789694997061
Ge 7.678646264194254 11.51037877623859 13.515455467643166
Ge 11.919182242509793 8.56176868590804 12.24447743749656
Ge 12.488423671478674 13.740175835395338 14.613629652286464
Ge 9.959142055539402 12.310823060812666 12.539957603583003
Ge 13.413071409364845 11.19545035929311 14.197523257495662
Ge 15.289728208702098 12.97034950180744 15.041832186684708
Ge 14.160372306782131 15.550338781667875 15.70381141366762
Ge 5.674056855154189 11.891909160819948 11.924869910578588
Ge 10.222938219324234 8.126620237573455 14.215532005539986
Ge 14.097535452408453 15.521569973495003 10.909489690881859
Ge 9.350956653732679 9.705807474477204 12.115917074223717
Ge 14.654533665200395 14.796543734859291 13.347667642848991
Ge 6.679735551713461 9.31813506547529 11.813628812323959
Ge 6.713241132575996 11.038411066226375 9.678404841217105
Ge 13.878079802074677 11.517590763177559 11.769960006088528
Ge 12.412141191058844 13.65716815676173 11.873390409467389
Ge 9.370037632998704 11.484052836535056 10.058621842136244
Ge 13.247811586109647 13.649858769312218 8.980005277362261
Ge 15.452357389493379 11.949462396329817 8.388708330524885
Ge 7.835634420810341 13.335620395327041 11.356661194107888
Ge 8.386126866587118 9.040741814133504 9.755709612795469
Ge 12.98576701177353 9.749049548852897 10.267905641734147
Ge 15.414792507470501 13.228180689097522 10.659277427388623
Ge 11.705947771674088 11.56938571356862 9.173223119068556
Ge 13.134736646560864 11.268905614724154 7.0601086304806
Ge 14.380660769651762 13.491975988067374 6.634587427821917
Ge 14.631228503552155 9.500526006509393 8.253091914403583
