35
Energy = -139.89411692 eV
Ge 14.607619829635333 8.639009649192104 13.719712967188661
Ge 15.58687184224051 10.30496970030597 11.792060423172304
Ge 15.60271647194431 12.812516375359923 11.024599131434904
Ge 14.190521899194248 11.667459814606069 13.612170054531726
Ge 13.476672398073791 10.518221718051894 10.36356723469399
Ge 14.678864825829018 12.446473927140032 8.526569421676736
Ge 12.898728023708518 8.125779030333936 9.319402295927663
Ge 13.279355066181905 7.437825511637466 11.880804497992354
Ge 13.76358793263916 14.790364625501727 9.79742967035187
Ge 12.995233514572014 10.56317717183118 7.728142270912042
Ge 12.370880686518253 9.86952304176285 12.790266996875067
Ge 13.25311709747296 13.860146289144492 12.550933156357154
Ge 15.354564286914034 15.199069183885376 11.795903715588095
Ge 12.237935956579925 13.622538825038552 8.128566515833272
Ge 11.977513019183153 12.712661203288578 10.542118079360428
Ge 10.513816906978036 8.905651563316775 9.95699753083188
Ge 10.472786537306957 10.955581495679601 8.472963979458232
Ge 10.607794315604984 9.101912494363262 14.943521414210032
Ge 13.02773222350154 10.219343454863951 15.487414511178468
Ge 11.163511658922499 15.375633334801467 12.163295273427515
Ge 9.486545611011627 8.635730987218833 7.419215169957741
Ge 10.658488930463209 7.891532611784753 12.464859560669044
Ge 8.94356954352066 12.995253830151281 8.57736236311994
Ge 10.219914109875619 11.724034240656255 12.33842194854631
Ge 9.23203985134089 13.948598160724803 11.0670733744571
Ge 8.444870086183702 9.927944411735417 11.661895855416459
Ge 10.863627915979674 11.904818695875447 14.890512306018135
Ge 7.723055210593406 8.605595821919378 9.483929410796238
Ge 9.628829949136717 14.037239613744736 13.863910543981085
Ge 8.293068190891384 8.340685519950755 13.70406913270236
Ge 8.46775228855603 10.80880617162186 14.753475199791403
Ge 7.6814180559574385 12.669989706346007 12.708080688848835
Ge 6.466013636440304 12.602619231267528 7.949520739996526
Ge 7.837428650284503 10.525596535435195 7.510761671516578
Ge 6.595332525081838 10.994498162916788 9.962107654669358
