30
Energy = -120.16138184 eV
Ge 9.719329050716613 13.027938750546186 8.34575497530891
Ge 11.383194786833938 11.080680290149886 7.3189124007848925
Ge 14.060331315665094 12.533535419829153 10.548109182909887
Ge 10.97153562533347 15.169458310902565 9.525646543789758
Ge 9.320973095787902 9.450574470037727 8.218474253568733
Ge 10.280520421912849 6.903811561199933 8.86469013099569
Ge 12.96690898504108 13.760408074810563 8.529594547350916
Ge 13.986162976314976 11.374329408173455 7.961262078204229
Ge 10.012735437759114 6.810883274889079 11.606006385173279
Ge 13.784385016930017 9.610981222573779 9.830362178643393
Ge 7.56629882332453 11.774450413938618 9.301742264286935
Ge 11.323791471721778 12.696159372248445 10.49299589269189
Ge 12.186262938101246 8.398891092300989 7.834544645845491
Ge 11.112223579693259 10.146485628844324 9.939574757618455
Ge 12.444868270635043 7.39255657340636 10.425730574480756
Ge 8.017209312218016 7.848867600905463 10.056300717775775
Ge 10.685332243096504 14.849069637649489 12.15909549104337
Ge 11.070255505155275 9.153955232096282 12.365075205549811
Ge 8.31652559145202 14.22955504044234 10.628989085403465
Ge 14.805800143165039 10.396595321689356 12.1206581456984
Ge 8.35073090748746 8.600875418765089 12.660878783442401
Ge 12.710051922854344 13.169221013714026 12.69696488461596
Ge 8.984024329667 11.101494773874052 11.540996185514695
Ge 6.578862933326906 9.967958084875418 11.094378879344655
Ge 6.689638443377005 12.574184006632109 11.850034302389007
Ge 13.972426292246759 11.582598266249436 14.370314503429293
Ge 13.303785138221638 8.99963551538084 13.798612270977845
Ge 8.924652916411777 13.095890048816893 13.22033904838186
Ge 11.194882958843603 11.257393608035263 13.954927680319082
Ge 12.448915419243136 10.214178419559945 15.911649856998663
