39
Energy = -157.09117349 eV
Ge 17.420721765086697 7.7099577848272745 9.913293874981488
Ge 15.032556365782598 8.158404309011019 8.181125263562993
Ge 11.132483821468893 15.312384231101404 8.349774992895027
Ge 15.55795184026602 5.955342902011763 9.369151705888326
Ge 15.773135760808861 14.413669101543585 9.105713483128817
Ge 16.0551434858992 9.795369811807795 9.818202355104948
Ge 10.002938623023391 13.455189345234269 9.747325820034034
Ge 10.4072314328232 10.980140236985635 10.04221234937308
Ge 13.261427524966209 14.092618425080868 8.94857064963881
Ge 15.602080558589345 12.190275171449095 10.487615897570626
Ge 8.849958734207307 11.095534329909732 12.051031451300494
Ge 12.89495910826378 9.396005075080394 9.540655709033375
Ge 11.769854552426509 16.115915324597566 10.65699978988973
Ge 14.93798799564997 7.7207223432831995 11.022390859379465
Ge 6.672696697966101 12.144072842264915 11.24612729919622
Ge 7.95651243041272 14.463881097665235 10.996856441859679
Ge 14.788057916375298 15.590783491132893 11.15656035911506
Ge 13.422737922258067 17.633921377416375 11.804148450866602
Ge 12.870944179096456 11.90628474332095 10.14090782879289
Ge 8.132046944000864 15.655588760962278 13.304931669240306
Ge 13.414182944409703 12.325081298784893 12.587985315330638
Ge 11.206881310154301 12.891459796102911 14.062967097299033
Ge 12.99425614444076 9.088798809783267 12.10167167171767
Ge 7.272089325951322 13.19401888015011 13.445271727713406
Ge 9.110569187033203 9.142496849563841 13.63315981461685
Ge 14.89617201124002 14.261194879886409 13.276555557017568
Ge 16.241443728213984 12.095606520592746 12.94459600907242
Ge 13.013902702390954 16.273568376152873 13.990569433538813
Ge 10.428468666189264 14.583005616858847 12.17467458677592
Ge 11.306102741397792 7.815838466945345 13.565230883650514
Ge 10.548214395599656 15.66338416701271 14.610584686677008
Ge 14.551764507443156 10.265220189439482 13.77233430372352
Ge 8.9891380695938 11.84239407730295 14.795937736617633
Ge 11.105267179067834 9.373261456142384 15.520754311130109
Ge 14.552322516953696 15.240189307092301 15.647208284076793
Ge 12.822469977168108 11.224951006392294 15.379023204229242
Ge 8.626966193846933 9.665228821859863 16.11393195450021
Ge 12.581540835204926 13.590462980111099 16.309416791431584
Ge 9.994121624721814 13.875079515531752 16.381832100421096
