37
Energy = -149.0974778 eV
Ge 9.960441083232274 11.189768147083258 13.586848498464573
Ge 7.227278257896751 7.269049918654796 13.73497867109057
Ge 7.2528233160045685 10.10533226515215 13.444888478840955
Ge 11.562989581184976 9.019868070913967 14.143813551512691
Ge 8.81616999521837 5.986838597963507 11.84513788390182
Ge 12.532251366609774 11.178969450418498 12.423967594872957
Ge 5.323107633901756 8.740947761875319 12.277676194344066
Ge 6.230271101765943 6.334067224371195 11.422301299944014
Ge 12.230116780887363 12.529807874208785 9.760642356961544
Ge 11.427166767172697 6.811483591582174 12.742134786300387
Ge 13.281598626550599 8.526829430647311 12.047486468359152
Ge 7.181266445033695 10.118938226832451 10.657931010716363
Ge 9.331650321985295 8.54880481517182 12.752206719676542
Ge 7.999906943895901 12.531682974663683 11.512638736848418
Ge 5.5706104048342215 8.314218306353037 9.583948695734753
Ge 10.22335268584837 11.273337577424481 10.918905155564362
Ge 9.49613543648399 11.078131066273116 7.950416404294321
Ge 13.756905409609901 10.219248392306431 10.089162697733517
Ge 10.311902670608402 8.09312369316229 6.976481236967767
Ge 7.947089479832362 7.117052104840433 9.462826983461294
Ge 11.970886447007382 8.131019072535912 9.678218787840223
Ge 12.705071468135658 6.715010794783624 7.6072986528462305
Ge 6.937030151088383 12.955114450894426 8.864554026745974
Ge 5.718178586495803 10.748528219679198 8.171821254979246
Ge 7.591118916160945 9.786397542008826 6.589882215211023
Ge 9.570297843561836 13.506179318400902 9.384327511987584
Ge 10.748875273829587 5.409612526988633 6.178485766255291
Ge 8.42382922854372 6.145666906420576 7.014689075404109
Ge 9.574848817770915 7.081962508976796 4.523786799850904
Ge 6.716485260223686 12.342664503335723 6.156261487859924
Ge 7.140469868889621 7.563415004322607 5.3270135723843355
Ge 10.834336120406588 9.330495781128176 4.620827794386643
Ge 11.989930812996544 10.495891146062508 8.112217813703511
Ge 12.848299714154509 8.928546614980407 6.275214086126942
Ge 9.158561647895919 11.443716457560456 5.296061475030715
Ge 8.933740491516842 13.624915426852908 6.765215220046666
Ge 9.602293023657483 8.930652216061322 10.227019014642503
