32
Energy = -129.0230097 eV
Ge 16.624273468932433 8.543757197944702 11.071994661882746
Ge 15.842690332779839 10.774944078048344 12.428578037648078
Ge 14.484490046921636 8.477947333033619 12.717907522411798
Ge 15.519195427389691 8.384655435172279 8.660260866931264
Ge 15.854458786596437 10.855776178980205 9.766859193800093
Ge 14.340016251775562 6.972926602653461 10.622991163253834
Ge 12.289128779020045 9.813467384413537 13.530061370182644
Ge 12.601868422648424 13.537239052755819 11.111785692296179
Ge 12.326999013694818 8.59359572207016 10.962351530090602
Ge 13.984941353224002 12.807345509574743 8.711968739554411
Ge 13.557008680749467 11.176030116370294 11.309525911383831
Ge 13.441439301317876 9.891746363344378 8.920148648366796
Ge 10.000515608183726 9.06775687926439 14.67646411607738
Ge 11.303157429843866 12.98505184576659 8.984477185836187
Ge 12.398117394991313 11.41138496189248 7.120219333939142
Ge 10.27205043700383 13.399339439347191 12.452292738111472
Ge 8.556701683251493 7.868559496541637 12.736422177610189
Ge 9.942745182662707 10.909502292885488 8.278053534336017
Ge 9.571411512004575 15.27417046648646 14.0558282555759
Ge 7.3778057596663595 12.135083992123565 13.717735679173067
Ge 11.149041335091525 7.3165877433244475 13.073712740076434
Ge 9.538216433652666 10.91641963345792 12.87578566581364
Ge 9.063797481174397 13.668096134375984 8.084452100683547
Ge 9.395047852434072 9.89142497771804 10.593562078000602
Ge 7.216534128230076 14.792075615696097 12.884729960805835
Ge 8.463999145671043 13.775543996930319 10.57110685694867
Ge 9.961728581026314 7.382299182031691 10.548836941711183
Ge 7.77077626693334 11.58241260483148 7.1804221189525475
Ge 9.453974873967004 15.891498654709325 11.596879824771355
Ge 6.896410698972227 10.077017460453048 12.032180673033615
Ge 6.074974444625482 12.856881824018059 11.490067322025736
Ge 7.246319257731685 11.245979814050147 9.726719689931853
