38
Energy = -151.53710115 eV
Ge 16.152473946770613 -4.667126371290373 16.813372598232537
Ge 17.996233331857525 17.729805955436902 12.95194182108509
Ge 18.892537334643535 15.394518617322083 18.796591274079216
Ge 13.301246945660454 17.375636309538013 17.65153920044229
Ge 17.87040863591815 11.541180068205184 18.129239093544538
Ge 21.188408869376143 18.469344313188586 16.08230477128513
Ge 17.190071998601713 20.151441472955206 14.877042016497988
Ge 16.465481674501092 17.707813730936497 15.05717149601982
Ge 16.004144332275 19.539878345692205 12.616764874899262
Ge 21.42170764004046 17.83265066364403 21.778681554057865
Ge 20.336957905035863 20.265694985492004 21.9031207059965
Ge 23.075468831967104 19.85088790053617 21.306355448367704
Ge 15.543408607564285 23.18786393052293 18.730996050397028
Ge 20.77468932349382 17.045575790085874 19.34931619936757
Ge 18.896672808087306 18.315588557322577 20.943812250164356
Ge 16.420258164772704 20.81201278364365 19.31175510866579
Ge 19.543324757945097 19.33446817624069 14.35158200528754
Ge 18.324227629379877 20.47727387099326 12.414281678430532
Ge 15.599662025417647 18.99083439386476 21.031443652734524
Ge 17.529123209679558 17.022540506464765 17.304362658632417
Ge 13.925038864017468 17.992162738014947 15.147558848411187
Ge 11.43751216449231 18.10661774086716 19.183886478159504
Ge 20.28305763617627 11.805148241311084 19.609733312742488
Ge 20.37003666461852 11.049242048866702 16.93700891659304
Ge 18.181519640956697 13.221089770534734 20.079800985303535
Ge 20.326221005445635 20.94033589022008 17.012984167295397
Ge 19.29781583559583 9.585477011579192 18.870463412126043
Ge 14.435421966780986 19.758272496060595 16.92934632567421
Ge 13.334644446235728 19.74726029132509 19.630928534261358
Ge 23.17460624674922 18.172621307282913 19.176654349083957
Ge 19.682897029053496 13.352159689678963 17.5479424216959
Ge 19.079247301932693 20.663823616799736 19.53612131126156
Ge 23.035199510293037 19.92358730059697 17.060048881517012
Ge 15.70506955041715 17.87870377250764 18.79557937204042
Ge 13.453321335593028 21.86529187639513 18.030354289244002
Ge 19.34448944497524 18.57280327626499 17.958217855033617
Ge 13.555374242113562 17.100902558835166 20.37313600521465
Ge 21.873442122111655 20.610299204351936 19.240559725940066
