36
Energy = -144.18927967 eV
Ge 9.54534883303069 14.42672424228077 10.592738324533897
Ge 8.735224446572962 8.68125668735958 14.32629787564801
Ge 9.438630028698553 15.96014893497432 8.089191120788952
Ge 10.5654320469771 10.084001032312983 7.092675191939881
Ge 8.023338149469028 12.98405728561827 12.731601652411532
Ge 14.601361828654676 8.182192741950585 11.235125310041383
Ge 14.203809876147337 10.708865663268039 10.96780334581655
Ge 8.934746508661298 7.439655719559268 11.997389755736487
Ge 9.709985755529365 11.279130925910033 14.118542665924286
Ge 7.048643491896014 10.716479053296522 14.184707416066885
Ge 13.591094938432134 13.838217704707697 10.626298669582502
Ge 7.670091497352253 9.581119936863676 6.60112624215806
Ge 9.515309965278478 5.095172750512586 10.817963247212997
Ge 9.479864214223847 7.7424990232175235 6.786589255572938
Ge 8.976703255868456 11.761617736810537 6.04257991836899
Ge 12.220984037420504 5.3324544530267435 10.96590422287855
Ge 11.716583834408825 11.68804277087793 11.108528783403305
Ge 6.624836348005975 8.616103866386691 12.469846593623945
Ge 12.610079279662102 11.842832168226417 8.694802170710982
Ge 10.83032121894426 5.728618457165204 13.144198606718165
Ge 10.96557356954877 5.871419272697155 8.662804800466047
Ge 12.482588324648537 7.640640272326191 12.467729012970791
Ge 8.946195016100031 13.325698890698417 8.169144655371378
Ge 12.711315191251021 7.63517375167913 9.560545198644967
Ge 15.8286514030087 12.678525848119602 11.663112030042644
Ge 10.677308914720141 9.514488268433773 12.28990301757387
Ge 7.097121447693923 12.631519112488274 10.130434975251612
Ge 10.788643934808208 13.505467921345003 12.80056260747041
Ge 8.452310278967266 10.596021427465253 8.7504308936588
Ge 8.42313509403327 7.168589023902951 9.3467827915926
Ge 7.345346311688869 15.164687527533589 9.354621974157233
Ge 8.273656403357736 10.520175527621037 11.714626550456416
Ge 11.348513255125686 14.205437532184746 8.709471894175973
Ge 13.614291210789498 12.318915488991076 12.98767659729616
Ge 10.435542586809902 8.855656248324987 9.523250584959058
Ge 15.217347704198893 12.237380977202191 9.104369144755198
