39
Energy = -157.12632743 eV
Ge 12.649458198377278 12.48845475253013 11.039039831223974
Ge 12.687111544961434 11.557394023095052 13.465495346644847
Ge 12.83396681327139 8.340161797143653 10.995681086360916
Ge 10.78307696486356 14.574236915627955 11.165723663710942
Ge 15.12080711370746 7.950465893797067 9.435981780932696
Ge 9.009841018337418 14.201900644320748 13.08108826000208
Ge 10.404249096957871 12.252039806303234 14.180579815211072
Ge 13.868777622590969 10.325817709373045 9.707020144679705
Ge 10.696989400915143 9.43707233221868 13.839970585970955
Ge 11.37768518984677 6.231588662960699 11.162765184607396
Ge 11.309833818299758 13.192377528452242 8.769049265250892
Ge 10.962723115393828 10.510522595233612 11.477284792895848
Ge 9.79643232413707 15.470453758554637 9.02256677997659
Ge 13.461034258633871 5.891394772665158 9.621430677682223
Ge 8.905496914237213 10.671821841331559 15.55790336456899
Ge 13.473805246881286 7.665344719863317 7.395746254903158
Ge 11.806845819008304 9.559282761045882 8.389433518791497
Ge 7.422402908443646 12.11628177110039 13.8854159474061
Ge 7.868940665395667 14.869598820582095 10.775113532713958
Ge 7.877454144751098 9.263227425043338 13.624524729000651
Ge 12.106947728476994 5.33089440001273 7.290833900422513
Ge 8.81668193860758 12.0492397432708 11.416517720319074
Ge 6.3638741608109415 12.737136814776106 10.12457386503103
Ge 12.203123366943693 6.974683220197737 5.0693699933635274
Ge 9.229326226094177 7.375471244048431 12.326352149423677
Ge 12.649305955510654 9.531054402857725 5.708814163703319
Ge 8.547049552499727 9.052768673066742 10.49828020183263
Ge 10.371347646759219 10.936700467121678 6.739781239692658
Ge 8.78638170246805 12.853287290125333 8.815084493163951
Ge 10.808780932509421 7.222012253483413 8.833330667197973
Ge 6.387981098307907 10.764053804446359 11.864350919744362
Ge 9.696862791365211 6.328811153671352 6.58752691278745
Ge 10.15308685033499 8.597331132999324 5.465002589193828
Ge 5.9106319848117455 8.656057558955153 10.353079224895415
Ge 8.379485381437465 9.936960941956338 8.070723780932678
Ge 6.624913057173023 11.869901723800764 7.595698339379993
Ge 7.284432554818342 6.535869921014104 10.64634303121561
Ge 7.669425619309699 7.3659526856174145 8.188884993984042
Ge 5.751923925452027 9.370868690037504 7.872131903882843
