32
Energy = -128.4510488 eV
Ge 17.063334112955676 14.003230464534889 11.562278997084038
Ge 16.659426950328324 11.874810285022122 10.052693678036743
Ge 14.898391882658256 15.614053740910588 11.571748795134829
Ge 14.886385705284217 13.55659842069763 13.23116721028989
Ge 16.47278382599787 11.556762748738468 12.723428586133231
Ge 15.545016826655273 14.268085722100333 9.299364748607822
Ge 9.829697172321355 12.217727424835163 14.690317860420157
Ge 11.744431441890784 11.021041166212568 15.792264212160756
Ge 13.172619568275765 13.85449648486424 10.876671221577094
Ge 9.371890927717024 14.764647967906594 14.082312970747433
Ge 14.16028394877315 11.871985801532132 9.350127009900172
Ge 14.055769890668277 11.229488371773837 11.827559150406717
Ge 7.59648622795616 12.727330022932904 12.866243591424276
Ge 12.627721812729877 12.229062550061496 13.808589411831537
Ge 6.90882357206999 15.047027339579062 13.297032075519706
Ge 8.039830997779612 10.275079401182778 13.94493596282868
Ge 8.512512199914758 14.753209041097135 11.25326685451371
Ge 11.035659958096186 13.595479267029548 12.358714296082198
Ge 12.62087008041294 11.23057427319266 7.445947905681493
Ge 12.38323404824133 13.695981124083566 8.187464812182672
Ge 9.64392964945595 12.510071823986653 10.637071993798354
Ge 11.949092314999497 9.373430839418047 11.543428875205294
Ge 10.13201270245605 12.234208092664838 8.179871929431286
Ge 9.374476953726377 10.20820393605004 11.594731400786996
Ge 10.611346170892416 9.455592179705615 13.952087365632766
Ge 11.02900489782642 9.76846700214285 9.12424387703095
Ge 7.384361714436572 8.499681806523187 11.789055869652762
Ge 12.036053673447233 6.831419473401715 11.70790802453897
Ge 11.04476511138766 7.17011599750895 9.356367377175264
Ge 9.492288140622046 7.006372859521686 11.760558195692992
Ge 8.558327888243387 8.748980809375606 9.379217035429551
Ge 8.687322342715843 6.192769195116133 9.415768864327793
