32
Energy = -128.22706521 eV
Ge 13.467228984864626 12.677401562984931 17.553941624056247
Ge 10.698170208886031 12.308002606906465 17.799107273306753
Ge 11.83119715591247 14.675714445709923 17.142499106703095
Ge 14.709002366000261 11.937361948642138 15.34509904792921
Ge 13.924098671576946 14.454206701872016 15.496588776666158
Ge 11.875184294044807 11.214851877295219 15.789571279911074
Ge 12.306507562579077 13.177785332764055 13.93577981375565
Ge 9.128180113773519 10.974885558038105 15.737471810115396
Ge 12.779856303449405 14.41780892485366 11.60433172790392
Ge 17.277461393204533 10.603081584751044 10.054356226408917
Ge 9.168829868077047 11.303235666021619 13.1149156776378
Ge 17.299890518397156 11.37122592118496 12.665460807655199
Ge 10.781530046928472 15.700338744607649 13.357432344992919
Ge 15.370931794709286 13.526856934875111 12.478906520499034
Ge 17.224921965727578 13.239395595630327 10.615595268611468
Ge 12.144373388395838 16.93723977650848 11.359322618465086
Ge 10.087644846937462 13.450301125068265 15.340730484413122
Ge 9.38351583299833 16.42982614926804 11.226449229568601
Ge 16.086568196467663 9.044230838101113 12.160398621502576
Ge 10.71664559757711 9.301595928332098 14.178596157172871
Ge 11.780767324829968 11.013456105113818 12.42709936779154
Ge 13.403350141467065 9.628192690350716 14.234193745829497
Ge 14.545806758180433 11.122746463654341 12.21502583426234
Ge 11.367510956872078 12.97129177170985 9.890793005006264
Ge 11.147183588236741 15.772831979524181 9.32988270379343
Ge 9.797801117248794 13.606720495639912 11.938678862688745
Ge 8.774134119590355 14.306123325886457 9.6454337103683
Ge 11.314331716260927 10.436154566507048 9.984777695159382
Ge 15.014809524060446 12.29295918045068 9.738287487933256
Ge 10.573496107834691 14.033180083717397 7.678097690667889
Ge 14.838431827774473 9.59702968370677 9.948983835911928
Ge 13.324864559988255 10.934441242284764 8.349605439293407
