39
Energy = -156.08793327 eV
Ge 10.799632313319165 14.472383601592504 12.000893149612617
Ge 13.517136333292733 14.019163815613297 11.466373297047852
Ge 9.710768279959442 12.719150273432106 10.441844729063355
Ge 6.549863913511172 13.175749054485529 13.163928384037826
Ge 9.28460141746277 12.88064405524066 13.546776598185108
Ge 7.261834290739248 13.117799824378377 10.635612132873517
Ge 12.24409852680159 12.623576839085388 13.409273111634379
Ge 12.54993288176154 12.555481154523523 9.193797802222187
Ge 10.37590835507572 13.117365373467631 7.826197729557447
Ge 14.815335026375024 12.20644538780437 13.082667400551534
Ge 5.439727081651705 11.334219912689493 11.440081483817854
Ge 12.228642087016963 11.163199709367632 11.271314849185064
Ge 7.251701027278458 10.646671677807172 13.376523036651642
Ge 6.391686098921455 11.626405296184359 8.780934586167463
Ge 10.626210321496513 10.92722558971691 14.778562853336975
Ge 14.967847842170682 11.888499367764231 10.243016932155214
Ge 13.491853961921818 10.132051990437585 14.235246728575053
Ge 10.013919066532836 11.64974023755252 5.777288670308851
Ge 13.81594889962816 10.698077652760073 7.9221110890075295
Ge 8.312749526011816 8.167464255969042 13.297673727095093
Ge 12.502698897532575 10.800216924281871 5.559417034686834
Ge 5.4361822233706665 8.851773123365794 12.42562612496699
Ge 9.644305645465819 10.45432655531416 12.133440106863395
Ge 14.398108125187221 9.662754846064 11.76568653190062
Ge 14.351227036850888 8.501160759085916 9.261191512312012
Ge 11.509608621779615 9.614655421108319 8.798307890037513
Ge 12.60303477890306 8.293796845278214 6.703017243960094
Ge 9.021694551885224 10.857952728218772 8.219269914876088
Ge 10.40727313637068 9.00533535308874 5.175108834090917
Ge 11.20210282862672 8.635423248932355 13.551825590177296
Ge 6.222956866192146 9.124961245237547 9.87606718588422
Ge 6.957266984849434 6.867132276187897 11.50429248719567
Ge 12.128894770806271 8.392284969086155 10.982308392181153
Ge 8.69217193442111 8.626317701030702 10.474023893076923
Ge 12.195185121245284 6.604844728732406 8.744150510958534
Ge 8.564224179595515 8.502958964435571 7.113437411308684
Ge 10.396697594795159 6.694310529065415 6.462535193670681
Ge 6.8640258613530944 6.972328276992313 8.621283771617833
Ge 9.525182926633011 6.688389771413352 9.011131415941113
