32
Energy = -128.19272157 eV
Ge 14.504678050919575 13.634080933196426 9.742324364978039
Ge 11.353234782844968 6.628867323053861 11.918928486930756
Ge 13.810377200202899 11.877797645255432 7.934505301337718
Ge 9.32185380060082 12.530255978062796 11.680267563314553
Ge 11.141425508285845 9.297634504360783 10.542275389691492
Ge 12.731367909875535 17.279498832393195 13.527038120249262
Ge 13.794561308605775 16.030683771919694 9.25404524315351
Ge 14.235954890016766 10.129637064638667 9.798753296232194
Ge 10.723908924838572 16.080777422433062 12.648130570312228
Ge 7.767856694263673 9.320619012402059 13.592356591611878
Ge 14.638011457430888 9.045077285004869 13.291345187278813
Ge 7.185345215243049 7.249648388988588 10.82846339505767
Ge 12.13451493803644 8.933197729108963 13.106379249348802
Ge 9.669884715788028 7.131021711904134 9.97417129424919
Ge 9.971908458529693 10.379795654579217 12.972697019136657
Ge 12.131121163125925 11.992338336776168 10.034594414621598
Ge 8.890918709902643 7.125951267269395 12.646213845020931
Ge 15.752761252533745 13.096378616381749 11.905641270937679
Ge 8.50078868037475 14.919545931120634 12.112944834744335
Ge 8.384967984713985 9.6099364517764 10.848939517555964
Ge 14.605442200018572 14.810549250275399 13.932259019457188
Ge 16.256831785000387 10.51444141235276 11.526320254533523
Ge 10.248907368389476 13.777574861318934 14.04504453270788
Ge 14.194617438651958 16.016530640550982 11.695770230861292
Ge 6.963116829991465 11.593067101873642 12.335883194228973
Ge 7.718945859102801 13.350123887566463 14.071166716742018
Ge 11.83599681561334 14.786185796392424 10.536834493774295
Ge 13.664286834641457 7.85304158957397 11.084643559740655
Ge 16.303845637138355 11.732335741712527 9.146851389518938
Ge 12.150895113279375 15.297132812040775 15.126332587423137
Ge 13.70178417034594 11.356643909882688 12.151162149063213
Ge 12.59086014938455 13.605415209906228 12.823458814654959
