34
Energy = -135.33937134 eV
Ge 18.230636855006605 14.898944914817433 11.0890327272426
Ge 15.772467415544343 16.465706785441043 11.691550888496188
Ge 19.115569730490233 14.207504979495214 13.469438813631381
Ge 15.395886075294285 13.80205943251882 11.402082469710962
Ge 17.030437306652797 12.976100021560132 9.647488978766134
Ge 18.08999628477493 12.169502302089542 11.775974824810543
Ge 15.27129295760373 16.794385587239887 14.4599857911112
Ge 13.566554611257867 17.616866692231714 12.419952600413858
Ge 16.553213961535235 14.661455822817462 13.588082553228913
Ge 13.273958676365465 15.213527713160355 11.01897213386784
Ge 20.577904469531195 11.78664400014547 13.466640620502679
Ge 9.630858199861283 15.89258645774134 12.032511969375783
Ge 7.856004112714649 17.79752166694869 11.788579313412049
Ge 13.680795255076072 13.013937291262074 13.13286311756294
Ge 19.11318483533843 9.850145380298237 12.374877461737343
Ge 17.80859726659873 11.649714561977294 14.290033325490796
Ge 7.518677486043184 16.24140990083047 13.721546441623325
Ge 12.94446819787019 15.504783978458809 13.690681139612327
Ge 10.611211394908441 18.243711574376665 11.592307203451863
Ge 9.417017583292282 18.168044912879616 13.861382973834706
Ge 14.504127781426199 14.251474032261289 15.359468541671903
Ge 19.736887911944645 9.973439035538732 14.972812804218847
Ge 10.378741509212025 15.878158861479104 14.496809538939328
Ge 17.422856978403477 9.040564600570226 14.105492071313925
Ge 11.23428004649334 12.202097492130303 13.184220980987748
Ge 11.967587568279402 15.043675338148407 16.359400115345522
Ge 9.869604140349288 13.180977700810129 15.191063880759424
Ge 9.103189026322921 9.945267073806889 14.319227289214675
Ge 9.927390286379806 10.456698740581874 11.964454120171181
Ge 11.47549169016199 12.704512079225626 17.49476655166257
Ge 9.241666984031152 11.336153608624615 16.836079793949025
Ge 11.874989406652718 11.18039698775916 15.5903306131001
Ge 10.523353376192372 8.884873414572084 16.094763159152865
Ge 11.700043725151183 9.36413643940689 13.69429301031042
