31
Energy = -112.4018601 eV
Ge 13.327516702579832 6.995249843437695 9.884601819067836
Ge 14.394220688995453 9.061242975859377 11.823127024625327
Ge 11.407199643567337 7.855551049752428 15.516163603991973
Ge 11.561216118634658 8.084149909905843 12.334080024399965
Ge 11.344059073044285 8.461750994287833 8.198107433871751
Ge 8.689473514013867 9.143829037191935 15.832839391216579
Ge 13.125169415433632 11.62517193655006 10.766367906568684
Ge 15.85305956875214 10.409584693031174 14.928285241403662
Ge 12.624299318935888 11.18653568202661 7.788497289454503
Ge 11.194732014452443 10.734711733554056 16.41706927327485
Ge 15.141898213665048 13.776905899512462 11.557890157216137
Ge 7.849691314261428 9.394738587547932 12.76996237252016
Ge 17.122473209651055 11.70374568791893 12.49237360268061
Ge 7.452469530187788 9.23730829078781 8.663319103820612
Ge 9.852020530202863 10.117819980148676 10.432386213448607
Ge 18.351139918467208 11.511076520375921 16.46136306269774
Ge 5.3405915647593 8.949791741356531 10.762890375182405
Ge 14.48306085729491 12.790983872645791 16.182924838729853
Ge 11.1537523872152 11.751961304796149 13.499500151253082
Ge 18.87927321668578 13.472027603432519 14.213125362116244
Ge 9.988073718828824 12.828601482775003 8.263874744063274
Ge 11.597376648823825 14.764815601399523 6.535112153386421
Ge 13.16549142504811 14.172447915411302 13.849042355960497
Ge 6.763459884003619 12.199655329651376 12.529190606991744
Ge 17.1095449957596 14.277719515222685 16.52654564233069
Ge 5.9267936057290935 11.668872024574098 9.594883179290447
Ge 10.895057040971997 14.522600154540141 10.622441287552844
Ge 9.161147479522267 14.01689657724364 13.103786057463605
Ge 11.904640800863968 17.47956623054658 7.961223835447536
Ge 9.357162837849367 16.815181950913615 6.558435254602407
Ge 9.41650176976374 16.99179765467053 9.606576978615525
