31
Energy = -123.99557814 eV
Ge 9.909509017763584 17.026440321171506 10.549590563445925
Ge 9.786280244646195 13.342399258073502 13.011736011787045
Ge 9.061806541698404 14.299326276264106 10.675947900230751
Ge 11.881143534973202 11.193535270509743 14.958039389243664
Ge 14.36276228695355 17.01416357750899 13.212630909434623
Ge 10.561769349174757 10.820225735610297 12.799249135615453
Ge 18.374291950897646 13.105490388152042 15.03620461699055
Ge 16.13294956139727 16.92592549867496 11.27588381582003
Ge 12.076111359651039 15.400853028423311 16.405624059849583
Ge 16.481218521102626 11.273647636292871 14.05801618159313
Ge 18.317452306590592 10.764150922287945 16.199629510477262
Ge 12.057616311005418 16.795086610495545 12.189609647486346
Ge 17.688642700837374 15.826878262584916 13.033094755648836
Ge 15.212153582736867 8.086740774803593 15.757627986218619
Ge 10.664515955513165 16.120061480126434 14.313652070728557
Ge 13.847254548266198 14.879715672406153 14.61494573318837
Ge 15.833957509047037 10.436805177806301 16.587120942384466
Ge 9.815253181592613 18.101661205804 12.968214997469394
Ge 14.192544712330408 10.10124072988783 14.426916176541088
Ge 11.363306461254057 12.947443384328352 16.84343735212258
Ge 9.559189934515873 14.203928978282834 15.512774851756186
Ge 17.30742659462402 8.960134997932697 14.59871030638892
Ge 11.551796342990457 14.519752345342607 11.157768252546477
Ge 13.642510605972163 13.014647494678307 10.812469091992577
Ge 19.629669887668733 14.14070863215613 13.03231584797246
Ge 12.486790964602406 13.07321425118027 13.30705380622902
Ge 16.336069607704736 14.566005259917656 14.759120975983961
Ge 15.232802300280449 14.664521862991975 12.002321380377792
Ge 13.108946160510897 10.73013793859414 12.092681716545071
Ge 8.277944664844078 16.027184286873283 12.521762927719811
Ge 17.37793701137109 13.05858765077618 12.344541628346093
