32
Energy = -127.72492647 eV
Ge 11.092252217218267 9.68244713692418 15.369656605182572
Ge 13.096330193720187 11.036364889095333 7.565327532421261
Ge 13.918136830885533 8.501223094126027 12.355825537988764
Ge 9.160593015436845 13.992289702843225 9.732795431130278
Ge 11.430981313074211 11.733378383504135 17.119168691463383
Ge 15.663336847698151 9.267493171073557 10.497610519073131
Ge 11.39948078742553 10.675599566867223 9.946075900713899
Ge 11.7647757211656 13.933147207111883 15.441381980703481
Ge 9.383337378226537 10.057406209362052 13.302981413646906
Ge 8.60954697099854 12.820867066305961 7.538336847331168
Ge 11.946441295178355 10.267874170419075 12.680662763304602
Ge 14.097668558119784 12.476773792803309 13.473320045534404
Ge 15.935193201174307 10.59829051788466 12.982895494039555
Ge 16.75217508018385 11.656433142003113 10.824896616658453
Ge 12.532321474705906 15.283039611501554 12.06120987534542
Ge 8.11769248258407 14.812395140914711 12.11014305039171
Ge 13.901363571452144 12.405771698801068 16.385792592793713
Ge 13.57101157431044 10.22811465434956 14.985571694670222
Ge 12.64626505372926 12.628183221297451 11.299152455942892
Ge 9.775281061015942 12.023991276346216 15.108453613611571
Ge 15.428298581253467 8.596799028567636 14.467788753812512
Ge 10.654262164819514 13.36541986197744 12.9508392587207
Ge 13.29342991840849 9.04950444939254 9.346277228068177
Ge 11.875422085427235 14.579888204085284 9.499972690841322
Ge 8.896225067353619 11.055396842172858 9.493246400950113
Ge 15.591439382257162 14.085685234883982 16.8584129718711
Ge 10.160507550049722 16.215498445918094 10.68528369050473
Ge 14.316741339018058 14.67018926770249 14.75001705983205
Ge 14.484119227987629 11.65868806909724 9.647742144805182
Ge 8.626376402157668 12.197858166510352 11.805899923034904
Ge 11.077044134760285 12.549148043287891 8.028464131199463
Ge 10.281565663913277 15.915905601559054 13.29299396169986
