33
Energy = -132.17079024 eV
Ge 11.06595300752506 9.786212796593537 15.158230729686244
Ge 9.856303717437502 12.076733135353578 14.462608935835084
Ge 10.759345918161781 7.517452304255627 13.67359523393975
Ge 13.201401472472895 8.603866011379534 13.612115143376352
Ge 12.711086668904727 11.359174429730432 13.838769608355639
Ge 13.861085683112023 13.509184229103262 14.381906814818771
Ge 7.699615367528275 7.438639925093653 10.5495238917521
Ge 9.332775131799451 9.881914705664192 12.954160425551082
Ge 11.744570969013623 7.96451676710456 11.336571042926613
Ge 7.9213574262018716 7.664290770268597 13.167979054640705
Ge 14.172836956410258 8.555469878236845 10.944141617349043
Ge 12.865057338877188 10.717105796275725 11.372127214611643
Ge 13.976101723167188 14.419464896426692 11.94793514534091
Ge 14.450170645585304 12.537255682343188 10.353481060563784
Ge 9.870720980719076 13.02047659919573 11.662837751460216
Ge 11.466269826090645 14.031750942326239 13.44904460720874
Ge 7.439427130897902 12.15037061302474 13.210818713709523
Ge 6.740017755166229 9.79379847158116 12.258988519094057
Ge 11.807705728156055 13.978567888558834 10.136468605148808
Ge 7.489232637102981 13.90582808643538 11.317831309480882
Ge 13.197661914230713 9.64308564924236 8.560390590597407
Ge 6.835477128783458 11.625082116711852 10.326809536081512
Ge 14.966966789839876 11.627181398968503 8.009313791524459
Ge 9.788289097753092 8.416643866637694 9.450079747410314
Ge 10.42936010537328 10.593679303792097 10.84896034841276
Ge 13.536676373936444 15.804542574078445 9.801127365383152
Ge 11.373858012727647 8.06911411608209 7.399359980916044
Ge 12.218095700694617 12.121112411098032 8.329056010564912
Ge 11.294946594481194 10.5460702745464 6.456163673889
Ge 13.930394072363685 14.031807282289835 7.839571910700747
Ge 7.083342910863913 9.486179828207499 8.97735643868579
Ge 9.120130848310364 11.49746009741537 8.828538602240112
Ge 8.98163267851939 9.486950712140516 6.991266449498431
