39
Energy = -157.09430211 eV
Ge 7.7338978896654 9.972639430804499 3.0531228935017696
Ge 4.6716019534305095 6.777183884119119 4.657290149022777
Ge 9.109742979757876 8.467824871268721 4.752747290030618
Ge 5.91737803427172 9.602882554559173 4.859934470722889
Ge 7.131223534630441 6.9222786708671435 5.293255305616281
Ge 11.930003742924859 9.660243567677142 5.47684768412967
Ge 11.336714483090597 7.1621528801587795 5.156397477459402
Ge 7.223101245480803 12.230822096060141 4.469572862805104
Ge 9.725700081090354 11.122189055959451 4.642098076634079
Ge 3.488989877027699 8.99096033449939 4.2523376025555
Ge 10.256049836732808 5.946600138591085 7.425582285139907
Ge 3.6841540623311833 5.559803685017181 6.641008975674248
Ge 8.540780982898097 9.62821478097895 7.0536971680640335
Ge 7.7675293388190285 5.114957636277281 7.061678024508193
Ge 5.792207598290066 7.201407072435135 7.536541622935413
Ge 2.948726422139088 8.014595626832147 6.6644506998173725
Ge 11.041160894215187 8.40378546868447 7.634364623635102
Ge 6.3713116966685925 11.057235182653137 6.868552298310254
Ge 10.82101666530054 11.068450624458332 7.575135173382087
Ge 5.479100324938672 4.6476190117110505 8.414174315284988
Ge 12.720975636810822 8.5110367037283 9.734449974436242
Ge 10.072474081923795 9.347668325894134 10.96218403900495
Ge 5.143005316392704 11.247769342543137 9.119886307503648
Ge 4.523922302952498 6.398423987221956 10.184287345016935
Ge 10.77353531729628 4.57287867008174 9.60090778455783
Ge 10.75732626304875 6.850177707152334 10.874450833107266
Ge 12.36984799378165 9.877385664861022 12.02115487123857
Ge 13.165845377333376 5.917846486641742 10.174715382878578
Ge 4.198888349579182 8.927466257253258 8.703386913840118
Ge 8.317635212231815 5.885356195752957 9.573354686416984
Ge 8.137086622320908 8.529924962302907 9.371738943074941
Ge 8.602133123917671 12.439177290327924 6.74763980234621
Ge 6.698888761494745 7.156196556721376 11.410328997116356
Ge 13.469315076141676 7.42848647507616 12.3607451351877
Ge 10.951729878481045 7.852941539147274 13.406924770493012
Ge 11.902871932660759 5.424494063956648 12.736428986887146
Ge 6.473021501160692 9.864829261123871 10.910370155219661
Ge 4.147485339605373 8.654601663252935 11.297484179260731
Ge 8.039652676454565 8.997524680638689 12.756804300474528
