35
Energy = -139.41950436 eV
Ge 15.068323372548464 10.882049352897113 10.522567635366809
Ge 12.47088282592086 14.203808594134488 9.849052466634733
Ge 11.238244633021804 16.221554205147175 16.022943311324212
Ge 15.973669058939352 15.247232923836796 20.256779654335485
Ge 16.377784270645904 12.219631468811704 12.352894881563394
Ge 15.646816143385418 12.597414680419373 19.968183946230887
Ge 11.057897508569473 17.770757618226533 18.1056945559277
Ge 12.98016155234029 16.69572371346 10.372570698975686
Ge 12.874395111952902 9.9994543144178 12.174477366990207
Ge 16.49909811403398 18.274002290725672 13.412245267267195
Ge 12.407737833808113 11.733911602903786 14.107763595802295
Ge 15.290996698112197 14.957349836842242 15.246446283894743
Ge 14.579763630932002 12.442244798619734 15.425940320875569
Ge 12.778667290223092 15.275464999154865 17.776694880783882
Ge 13.456477598849549 17.85649535193581 17.230215873306296
Ge 14.943716125902274 10.47298490792623 13.737029909582581
Ge 16.499267670896604 17.424705124937184 11.005251214443211
Ge 13.577326034506232 12.177755981950607 17.993687736082
Ge 12.402264337948305 11.630034221341568 10.012527081352642
Ge 13.586058203406509 14.830679751984944 7.572566448680964
Ge 11.421091872947704 15.961945071071248 20.006934248754252
Ge 14.374876188992243 16.72072232265014 12.560783759830617
Ge 16.278553025228067 11.900530527486701 17.33888556163782
Ge 13.512632113780182 16.72725752590585 14.958533584282547
Ge 13.800406413377113 12.705666533614338 12.158994401594494
Ge 15.06845850486683 10.330354825215863 19.0427603070393
Ge 15.55828518144165 14.437146238587554 17.86559693810371
Ge 15.118627252349466 14.72279281495476 10.06234101075683
Ge 15.118509858848299 16.91919009926963 8.76053141753076
Ge 16.241184412010785 14.861035005942792 12.659422883717713
Ge 14.504980324944295 12.665080966523309 8.520384647308465
Ge 13.847310529333873 16.962460211594426 19.766247252971645
Ge 17.46841982290709 16.366780097978747 14.834854534522018
Ge 18.395311364121138 16.313933885495885 12.428202565066014
Ge 13.413653230199888 14.224192701980044 20.245170199280825
