35
Energy = -139.86024058 eV
Ge 13.223873491678088 11.52577902657816 7.753370327233355
Ge 13.737150662916589 12.498881388139747 10.030797722451778
Ge 16.349638352987185 12.507276865751924 17.257551699025644
Ge 11.583935695160005 15.934151986639153 14.64116908046151
Ge 12.646826772979226 15.811291156819813 12.214051956323292
Ge 10.208295625383379 9.775648223463131 13.539809105749562
Ge 19.4985891992456 12.113945639404426 14.69116516403778
Ge 13.012348248792907 9.753755843095892 9.715273096908529
Ge 13.684555870769914 14.435152659401709 15.047087912674098
Ge 12.842500229133881 12.432629772098343 16.63055880933729
Ge 14.786240073078506 10.33815307529406 11.50438931008043
Ge 14.495932402490805 14.189358061857918 17.676577152725372
Ge 8.908101935390121 11.154695745321563 9.904467996298159
Ge 10.96147586431752 10.216206022356888 11.20035787321108
Ge 13.327291509881052 9.955201558696267 16.822200251632594
Ge 11.073078756287545 12.012077174085686 8.977223257715229
Ge 11.466798970184659 12.046822110645868 13.434369152373218
Ge 12.589905921097532 9.601826388646712 14.373677610376674
Ge 8.181106367339012 17.47865895158544 11.285274884619378
Ge 14.130735751117314 12.242387307119555 13.63718559989606
Ge 15.811975345270676 12.622137276096169 11.583699976572143
Ge 18.669204627436024 13.545778794682189 16.63830813853595
Ge 16.38704442042912 14.926147892716179 15.876147874676805
Ge 15.294642862444151 10.672399117621678 15.313734609115114
Ge 14.848676045826704 8.766757508453503 13.521211080693128
Ge 10.927963779654387 13.541733271324361 15.405293950636176
Ge 11.840926019535148 13.528622377901913 11.371384626019342
Ge 10.962285013120967 17.148245711703364 10.82126662712845
Ge 9.623357551058888 15.64070059722939 12.642098969899624
Ge 9.332280776314459 13.48604407308129 11.017889019005818
Ge 9.561637536637916 17.904974589276588 8.721290367407804
Ge 17.043520011058938 12.780691819560555 14.48268404515832
Ge 9.06533125979853 15.628472501793196 9.656777872687087
Ge 17.920038380665257 10.712897613578715 16.219355932509178
Ge 9.8080629357955 19.4119892919679 10.859663786283726
