35
Energy = -141.53598836 eV
Ge 12.005894468122422 10.633936400331777 7.042377175276556
Ge 9.625322043315977 11.623568880605612 5.886383790009726
Ge 13.378504310627807 11.103013730346003 12.955113465373524
Ge 10.226759035953823 9.757387100727595 13.564875039928394
Ge 14.060911773090458 11.952196323195995 10.628384604907476
Ge 13.49758617977729 14.775515402450887 7.937883682191277
Ge 8.168860532612879 7.998171949255421 13.10009686774942
Ge 13.674355201887359 13.9005270463109 13.896937532607284
Ge 11.954740279112242 13.848838805634838 10.435164961460059
Ge 6.257800840514617 11.62234191816914 9.97726913328685
Ge 11.435648017493081 14.025485273323058 15.382593029001299
Ge 14.431798006440522 10.526468075424141 8.423621927472798
Ge 10.365003972763999 6.619460506964203 14.28617544091614
Ge 7.592780007501167 13.170034486401972 11.654850642694708
Ge 12.172117472517158 6.221625978637777 12.510245612674659
Ge 14.99788714782181 11.759129828969785 14.882088041629206
Ge 9.697941709187676 9.844064473429922 9.805682082015203
Ge 14.466046713145413 14.581496278194706 10.502191108715131
Ge 11.6868841587025 8.889884282742418 15.743707179770078
Ge 12.606212235817061 8.582304731710096 13.327256925662713
Ge 11.292750284666408 12.65659805148722 13.063526544797975
Ge 13.77841384019614 13.363728000198641 16.54149208957267
Ge 14.070661627550654 12.442007718230464 6.540805968864736
Ge 15.576098585045026 13.03252655792434 8.60930696678307
Ge 8.79404095606867 11.979350339555609 13.702991126718524
Ge 9.05216926594327 8.481838203870465 15.579679094118406
Ge 11.448567908263904 13.174657558450509 7.724969026890167
Ge 12.289577261780563 11.528941145521422 15.482303177267736
Ge 7.8446499893054025 10.402219182953436 11.594265542167856
Ge 9.157709482211997 12.628408652171565 9.772625120153698
Ge 11.790738334546006 11.284212245444502 9.571426372043497
Ge 7.967966935708795 11.166062925586656 7.92625120226633
Ge 10.324925429946328 7.787476958760293 11.657491373258503
Ge 9.673756348292637 9.2799069716932 7.190825830173551
Ge 8.913904326731128 13.716771805013556 7.387876193866304
