38
Energy = -150.61014151 eV
Ge 10.717532144317811 17.13531837591549 14.228007947465812
Ge 16.52570911226497 19.192881921777726 15.809277722825277
Ge 14.017294851657775 13.169708690577766 16.185062492825388
Ge 16.491000031305017 17.51442745579242 13.683249611354224
Ge 13.413762589308142 16.177984791336815 19.65006557314823
Ge 18.373482842449253 13.264218499274783 19.707764104946406
Ge 14.865029320143792 19.62824542843284 10.010932529664549
Ge 13.333817606742809 16.630337416553424 15.19854153744482
Ge 12.474046190295976 16.444154209577583 9.077771402296785
Ge 14.92095699547841 17.08601883254612 9.543564950614497
Ge 15.119299451542272 11.004382775787793 17.191859279369393
Ge 14.474040638044531 19.377222418501667 14.450157491139079
Ge 17.92241627276307 10.223181498472545 13.427442874617146
Ge 12.78027584924276 15.045481732686747 17.44858088426662
Ge 15.30698885599168 10.220424003770686 12.56649570538648
Ge 15.505876323189465 14.367993427065137 19.721684583085747
Ge 17.95993139623812 19.730221764879133 13.628938208245074
Ge 10.926390743959766 16.615671359914213 16.741507086564688
Ge 12.280284824417226 15.255895405248062 13.3234422509994
Ge 17.360903331025085 10.885854877145334 18.540181126727173
Ge 16.31110667294088 15.002427491858537 15.897971212327722
Ge 16.008323575742093 16.98881110667167 19.797990309868823
Ge 13.323120787623909 17.85502554351878 17.620065543396137
Ge 17.785627173566702 15.461489864555313 20.902173850247085
Ge 15.574353076635125 13.488730411894204 13.967077054109224
Ge 13.543913460140578 15.241531130228415 11.123676123042717
Ge 12.62255066158877 18.49595908027025 10.595584691951116
Ge 17.707305401566867 11.223607778492447 21.10348636063914
Ge 15.87982311260631 17.17535264445476 17.24678826586463
Ge 16.510336356815582 13.269607311943629 17.684646302670327
Ge 15.842459596626862 20.03818211032102 12.381347644956534
Ge 17.219504236285083 9.313998449536042 11.297399315573989
Ge 16.06575309954586 11.137744729877163 14.81285085748501
Ge 14.401214456191216 17.56728466573105 12.112008037597601
Ge 12.736605852963905 12.800141896635392 13.916456251731754
Ge 14.331079615037625 12.830934936854238 11.835457690794593
Ge 12.070611570955123 18.999497170259726 15.494997326011491
Ge 16.509691322074467 13.354113219132495 21.833586889039083
