37
Energy = -148.17642341 eV
Ge 9.024915417237928 9.681587715704302 12.476079914873495
Ge 12.181154961172913 11.714805887202036 11.141137916889516
Ge 10.43008756814319 13.327281808710126 9.740969445522195
Ge 9.727497915316947 12.094250004435027 12.02693378622251
Ge 8.590737978397645 14.24310447089746 11.239463402053566
Ge 13.094589089822056 13.545017799765988 9.344060290822878
Ge 9.221928957417619 8.56089998559322 14.911105203165345
Ge 12.47581159421775 9.40615802051892 9.76803507477973
Ge 6.772134456867163 8.862093848716261 13.568632309013577
Ge 11.239403232786346 8.567363857292749 13.223013407857835
Ge 10.165617244208093 11.804616122657464 7.288097894726462
Ge 12.92056394522654 12.23067650876485 6.702098363465701
Ge 11.17276500896087 14.133149133075024 7.350564565722634
Ge 14.270777580012437 11.225615672108773 8.801106726726875
Ge 7.5484377823286515 12.327694607711166 9.757046802507999
Ge 8.462432422658006 9.872251398065313 10.047174743436276
Ge 5.700519809757405 10.340704543448432 10.288445489285435
Ge 10.381559781571523 9.55962240124519 8.353646362043303
Ge 7.357624727063494 12.253139143040562 7.148516352676164
Ge 10.985266680117403 7.107430557522986 11.135697013166173
Ge 5.1040040927009835 8.066331779270223 11.769213445938924
Ge 13.171815117415198 9.53690201933294 7.136655254929719
Ge 9.800111656751172 6.247269314132563 13.527589987169387
Ge 7.413687752831058 6.52044360659443 14.603165847322984
Ge 6.738518224989975 7.950384967046758 9.617351515764796
Ge 11.476570289928743 10.210116096290058 5.114825610340942
Ge 10.600911509422733 7.96392553769193 6.257166804693203
Ge 8.907891250116288 11.198331304452134 5.094860251149101
Ge 5.959455554359391 10.088676947830722 7.695023431585503
Ge 8.766511056535519 6.42384148713483 10.122860267209216
Ge 6.9967509098091245 6.247565997668141 12.064476792248831
Ge 8.182550911670406 9.122754911180065 6.447324312485283
Ge 11.177512077862444 6.36877788189474 8.150318535371042
Ge 6.16613733111648 7.566700839147116 7.003371579381252
Ge 8.35481612512003 6.457549395513347 5.9284639303547335
Ge 9.04179089185908 5.010092241721877 8.025868908817806
Ge 13.094945697558014 6.840678789952698 9.807445063608549
