32
Energy = -113.58276679 eV
Ge 11.07163419233776 14.014070181269528 18.142047450401467
Ge 15.485086137922892 10.838633139910172 15.677040637119466
Ge 11.661056326443944 15.49398721366534 11.710939432517087
Ge 10.38764616006518 12.209334725199998 8.050149179638188
Ge 8.081422571785644 14.087877709932272 8.469644157176715
Ge 10.432481280972608 18.43796569946962 10.896819960719421
Ge 13.244844669108977 8.983782180778523 15.052242529366762
Ge 15.940927300406358 13.389943678288791 13.03462174397862
Ge 13.9208771342077 14.041648058651122 15.288385173457716
Ge 16.34836200909175 15.276661551285521 10.633296473287412
Ge 17.192910805391172 9.580659813817203 17.619677270768086
Ge 9.435601892412382 9.839479181538168 13.751809914888254
Ge 8.408407264936262 12.99149768160774 17.047692225210373
Ge 14.034813047610205 8.225721378387291 9.863405380696523
Ge 16.086601210448848 6.942811067205573 18.127763313095322
Ge 12.444385385628776 19.142708411632377 8.815489986145442
Ge 10.92824526615949 11.274406319645584 16.758486254644442
Ge 15.854088464408028 10.464669428944484 8.813777702999017
Ge 13.04382551027104 16.70222532473471 14.443133064762424
Ge 12.71861516876419 20.1815601678175 11.636554051851297
Ge 16.99756801743004 7.767487127313099 9.553721669841423
Ge 9.094229968736139 14.240359231444367 14.306950921434646
Ge 13.968668947046178 17.398775575511795 10.88613974075572
Ge 13.986605503282131 13.503033424510908 10.633864813796379
Ge 11.455075652566375 12.303639414274897 13.929240748591114
Ge 10.895430934060784 15.159008561227314 8.569890756936205
Ge 9.335435273219062 12.690059987855681 10.881753470661799
Ge 17.2805561811589 10.128887079085809 11.494899666670731
Ge 10.548626877695034 16.23933289913846 16.114623424927775
Ge 7.59454929197249 10.305552614768938 11.676097246358488
Ge 13.8825922612774 6.440898123431312 16.385566512610925
Ge 14.356798246763352 10.122136816540397 12.272815274781907
