37
Energy = -148.81218365 eV
Ge 5.5726366605822415 9.609234831555922 6.772658612706691
Ge 5.99716565911656 9.240515512538773 10.831362963748765
Ge 4.981645795387231 7.84012310309031 8.779161275135724
Ge 4.274301408321472 10.451606277079259 9.047510294665283
Ge 5.958925622194413 10.575477060012716 13.315313331955148
Ge 8.671666117334604 9.174010429770265 5.685409660673605
Ge 8.244899200976475 6.723604917992651 13.37081042107157
Ge 8.524704238088736 11.223576782066484 13.74945408411356
Ge 11.282718582146511 10.314072999444654 5.4314155066524
Ge 6.300771355359115 11.867717275991858 10.33470004629143
Ge 5.825314054755684 12.086447554070215 7.6709131010099245
Ge 8.476866778064446 7.7413350145834094 11.039064675597533
Ge 8.359251860113199 10.47406575554599 11.328892855136747
Ge 7.471427599656132 8.178861378019745 8.323376328616977
Ge 7.467988504923677 8.921434486158885 14.818684312830511
Ge 7.936751571283462 10.653629946195263 8.044188866818951
Ge 11.167252096681034 8.436414634765331 7.88966551432577
Ge 9.077079916667804 11.765471464964559 5.896009497375004
Ge 10.335365704387657 10.434550155997318 9.608606505318003
Ge 9.78515522815888 8.895550063594952 13.396334301427352
Ge 10.505771241538458 12.64783373941296 8.081209636655489
Ge 11.318803012424551 14.460320816258818 9.648522688640274
Ge 9.174172634599445 6.712913109630241 6.999051140884708
Ge 10.243981644904753 6.3065597923319086 9.44264789999976
Ge 11.235672674803954 8.417039175213963 10.900555060927074
Ge 11.172805782669007 7.7351927802943985 5.272857953954112
Ge 11.84011949543781 12.240950957584651 10.768818100780486
Ge 12.45978894317469 8.774098697470853 13.367584070017088
Ge 13.39720441627402 11.017848039835965 12.350763925955818
Ge 12.870741975680433 6.444966714886791 9.504067161444256
Ge 13.910401092630861 8.468644109848572 11.12103041929401
Ge 14.405516348753707 11.227647057900693 9.970791501917763
Ge 12.522093485046515 10.970718168667325 7.544523508477976
Ge 13.332040790379153 13.278034164745598 8.443208425956605
Ge 14.106145205275679 9.053682850774706 8.441148814280599
Ge 13.262062875324059 7.046447879357381 6.994565866742246
Ge 5.782266581091273 7.840878456555307 13.066597822809008
