38
Energy = -152.72070843 eV
Ge 15.958984188214583 18.26167413438526 16.452226588036343
Ge 13.834843144290259 17.26349689128916 12.21599796576571
Ge 15.924829392275027 18.746896028179858 19.23001869642738
Ge 15.729178893365898 11.441418705466877 14.874448835530965
Ge 13.174878558531859 13.893394273196085 11.376036452887854
Ge 16.79164630539089 13.232708712896159 16.46168574249836
Ge 17.253312281173002 13.60551519253842 12.706373614436483
Ge 14.135562048249126 12.671295137276932 13.380967894043863
Ge 16.773632330473255 16.133649966971152 9.347838600934034
Ge 13.637303404068582 18.771495864288323 15.45392398019046
Ge 18.79077928952015 15.270215044104285 11.108870471468704
Ge 14.55764184611662 12.76380449839351 17.556951169721955
Ge 18.97602063688115 13.28848079364131 17.746308331931033
Ge 14.137094814043275 15.91550587446107 10.050259573190598
Ge 19.69708628407209 17.40412559221533 12.655418089221497
Ge 12.43035609186951 14.572120933059258 14.016041287652717
Ge 12.041663979463241 17.13430918330991 14.07415175485285
Ge 17.69054014778341 14.597550724530084 19.545999790215927
Ge -2.3573865724981653 15.017307546627423 13.709278612482438
Ge 13.663077817898916 10.787367572202637 16.34441640608333
Ge 12.125674609102502 13.214165833520354 16.24951952434538
Ge 16.601623658576823 15.193534787155395 14.816675090126132
Ge 16.052247121724424 15.71070745063066 11.890216549745666
Ge 17.620618814909214 17.838353510773132 11.106088883472134
Ge 11.089296151261612 10.9156033644656 15.93440294153549
Ge 13.051832956241206 15.250172960320839 17.858537415062795
Ge 11.666651336778466 11.878931081726892 13.615308313850777
Ge 18.081362748768857 17.31310221147076 14.904694877814395
Ge 18.823818332491136 15.828144818571985 17.19769001052906
Ge 10.731387817014431 13.854871531920125 12.200536748965714
Ge 14.205415522546607 16.184405893480186 15.685664588430853
Ge 14.256162871314228 16.95157108355238 20.18313409571029
Ge 13.439830577022752 18.641391180330746 18.052463535446627
Ge 18.271887946708976 17.153118828581054 -2.2907164211169357
Ge 14.99436381921916 14.454276558416534 19.73528339906797
Ge 11.858172722166557 17.04584618084923 19.22145085732648
Ge 16.062753199114827 16.208554834521106 18.04028249675342
Ge 16.079693167548665 18.08747207237223 13.111543832724658
