32
Energy = -128.99959257 eV
Ge 11.111012946425872 11.957584094970832 9.413785025343373
Ge 9.291545278975365 14.925884492592722 15.308240167456162
Ge 16.037149364107844 13.32005751384985 8.991752744037111
Ge 8.340135507510665 12.703610173423828 11.255659782816274
Ge 12.04570057500147 13.790226445431403 18.275730036975016
Ge 11.605311575207006 10.661869235145039 15.5489898539586
Ge 9.006954646592757 13.241931166721464 8.68127328327711
Ge 12.07668211073164 9.97555535972258 12.955421684317752
Ge 13.996078089541165 9.129782363384537 10.400988321829633
Ge 14.636684695984556 10.816317265418457 12.165730409351074
Ge 15.03021847631848 13.208103959681711 11.366330770334379
Ge 11.357938732353581 13.182554454610331 14.243262592967147
Ge 17.1641763716731 12.929009438164481 14.207642570181935
Ge 10.22066783869501 12.840325819674385 16.61248497767917
Ge 15.754494984213983 14.985960893782723 13.184821344362884
Ge 12.473126911164707 13.605939311868003 11.11458041642564
Ge 14.259949881461507 13.236573130913623 16.99899357128295
Ge 13.527251309737597 12.963296580539039 8.492797412373207
Ge 15.286250143291866 10.886373454746668 9.123896584217167
Ge 13.745050349448992 11.826962348009829 14.449231062432693
Ge 11.338442369176487 14.732921099844507 8.840971946076834
Ge 8.974341959813794 15.31334379351448 10.285390492603995
Ge 16.005620041578716 10.429601890412304 14.573959726117437
Ge 12.8601288404244 10.423383901021278 8.189872247207557
Ge 13.750460296002217 14.408882021238623 14.651585347842046
Ge 16.27783225050474 14.676398500355571 15.97146149024116
Ge 10.687377166950009 11.809805665238974 11.924258417971092
Ge 11.691793912031002 15.236608549983563 16.19365603321862
Ge 14.185441442204569 10.526672523707417 16.640297913976934
Ge 9.659213241818845 14.502665034145572 12.678920422608153
Ge 16.688371499487538 12.11430068978513 16.690349001698063
Ge 11.452669442348459 15.96071541636496 11.24895685439198
