34
Energy = -136.98322124 eV
Ge 14.839789291186287 9.113937759948817 11.117515264909391
Ge 14.660072893060706 13.917906892298657 10.596245058336441
Ge 14.59265458149838 11.47421794728147 9.110596248959485
Ge 15.768002530977467 11.690843469460042 11.540571434697698
Ge 13.746457821282794 10.6864058351597 13.004801212565967
Ge 12.48337413730751 7.739383243071802 11.297151307148983
Ge 13.791022217045928 13.270044936904839 13.062151673775833
Ge 13.78640000750992 8.25120451454904 13.669953728798205
Ge 13.695922416894996 13.839373617230272 8.101417548673929
Ge 11.691797140104054 12.155156146190775 12.02178334916386
Ge 12.518257839628374 10.39045741197494 10.238182233867592
Ge 12.362504274424088 15.196640782896289 10.302277097009554
Ge 12.745683201877721 16.34056659840635 8.0797276407703
Ge 11.149503730748524 10.133471773711507 7.7760138813877555
Ge 11.128548650325166 8.496622875272008 13.48925402536835
Ge 10.295237322532081 8.749539949346 10.073084884186361
Ge 10.08027584968309 7.9453953432074425 7.504569727432593
Ge 10.068833739671746 10.797572837960617 13.358258554352858
Ge 10.840661451195006 10.05283948570951 15.744703063038601
Ge 11.535805213009873 12.587720089209823 7.385869601193151
Ge 8.302922022801441 9.762029446964746 8.092439483057317
Ge 10.12796881658296 7.103761123427071 15.4864103427814
Ge 9.139093594369688 6.766316575584509 13.029490081979858
Ge 10.335703519916319 15.497906624218619 8.113315044033879
Ge 10.623170743673999 13.00701925913478 9.826650478054546
Ge 8.468984366376386 10.50244868554436 10.675140477714674
Ge 8.710609179684567 12.280620685202498 7.911984124468219
Ge 9.687681288525866 13.876383427461553 6.195445014277935
Ge 8.00759634907889 10.746554201370818 14.90169293975498
Ge 8.754172645736466 9.058635854208271 16.85427561857593
Ge 7.482521889664239 7.817588561645974 14.928115866477182
Ge 9.684044445582913 15.37495163107158 10.579115958897074
Ge 8.079388812876473 9.119210066435473 12.713023502702727
Ge 8.04208234240476 13.079287206141725 10.282007720506115
