33
Energy = -132.6896246 eV
Ge 15.546416910407613 11.964527652110823 12.204237207831763
Ge 14.168675612570086 11.453347637489303 14.517463745897418
Ge 14.858419886939988 9.490277631008645 12.966003355075486
Ge 15.115449540773554 12.448450398710735 9.346486850187105
Ge 13.47137222954731 13.580415768742965 10.904202085346574
Ge 10.766870038435073 11.051692624556264 15.625683535913316
Ge 12.122563147089634 10.093416653932303 13.237612546036072
Ge 13.850253077123726 13.959043416069957 13.4358314680739
Ge 15.098656274541655 9.958463096765426 10.352374135788768
Ge 12.754270609911051 9.166971550304918 10.897135392630355
Ge 11.60611292665539 12.706928827660125 13.734369824876758
Ge 12.958736049831568 11.658679008012017 8.070879288971396
Ge 10.665729162634777 8.56868137789426 14.803728537603986
Ge 11.75512557860538 15.154036293143559 9.623759497221
Ge 11.006665372173845 12.838247009281545 11.091985392677252
Ge 8.3699066989503 10.568371870505768 14.77025997342264
Ge 12.013355044075293 9.320611624708443 7.375300393063176
Ge 9.488676046752317 14.115948629638266 12.92051114125369
Ge 9.462914620863298 10.167830274710266 12.111359847694686
Ge 11.504480230244958 11.533592340492076 5.774905972429119
Ge 11.241877501078099 13.53724911198602 7.725919016989005
Ge 7.996207188335849 8.094794471455133 14.295671916505949
Ge 11.336730286565139 7.159738359354784 10.204231780511877
Ge 11.062347370931043 10.671729992969862 9.610352035796305
Ge 7.858652985133106 12.10041489919295 12.777645172604739
Ge 9.321741473578719 14.648383334444807 10.3293222384867
Ge 9.57461963132544 10.156892049753887 7.322048388783921
Ge 9.780633958047035 7.474999660391948 12.277552577867747
Ge 8.797638197942064 12.339531724375588 9.139115224370384
Ge 9.161220079327734 12.707209123347159 6.5138148046191064
Ge 7.099665799028768 10.82077694042954 10.642170648544822
Ge 9.12701847972571 8.688704809002289 9.781276048237885
Ge 7.291532145104128 8.286555532644597 11.678441212411672
