33
Energy = -131.85542407 eV
Ge 12.359771405919927 10.13241865886664 7.9704433550384035
Ge 17.31376255219883 12.59531474580985 14.03863433315283
Ge 14.656839840615618 9.693570786375522 11.888664057630796
Ge 12.32867689643803 12.671382851871623 7.419312091986237
Ge 10.124799504090468 13.739743309363167 8.299324163463433
Ge 13.205492721257402 11.244153161927166 13.374837819143348
Ge 12.818815190477451 14.748882205467577 13.005113709990605
Ge 16.897318103458577 10.82021085277912 12.191174649275688
Ge 14.984497754083641 12.206692450373845 10.854990529568672
Ge 16.99462844959364 10.895072256951268 9.61015882031915
Ge 10.62538844091445 9.802576998453818 17.02915850373685
Ge 14.95224147889383 15.480690286944489 14.458921439333306
Ge 12.900614267432617 13.498226426475608 9.716991780513263
Ge 11.593823629728995 12.647726435638555 11.928425876981668
Ge 12.186437970394083 17.04012769154577 11.698110757235256
Ge 14.85986527112674 16.421890098520848 12.039683934011148
Ge 11.273245554706332 18.06549426675953 13.972994702943026
Ge 10.99356950883073 15.122309597448375 10.36074990055494
Ge 10.42057261303001 15.722316315603194 13.670284689345069
Ge 16.161584460775533 14.065307547478568 12.190072308186288
Ge 13.426151873022043 13.175133416374807 16.802182954610558
Ge 12.97954806240521 10.776463803700318 17.6769762960054
Ge 12.491526882839075 15.335430367287838 17.713966899299233
Ge 10.896413361044265 11.606959623060996 9.53673786302388
Ge 11.034388406764261 7.820701716819875 15.468732824161796
Ge 12.95912230692861 9.391510952318663 15.456810025127375
Ge 14.550231921814776 10.202847565803332 9.350977788702396
Ge 10.774636842325076 14.400605357473957 16.056141212519368
Ge 9.380326423330951 13.955021780867698 12.032556844622697
Ge 12.717163029516716 16.39244018735171 15.373972110262084
Ge 10.526468464423868 10.062444092720908 14.12782628969014
Ge 14.840304969858913 12.82740014416216 14.648898777273633
Ge 11.428336409806393 11.905260740680601 15.624144234329775
