32
Energy = -126.19709788 eV
Ge 18.029584404443728 10.880249539963204 15.318969318112796
Ge 19.10211487556288 13.034633600765703 14.082635598155239
Ge 15.528120180437247 10.961292796857494 11.244114039941213
Ge 14.33986035058744 8.671608521102254 10.294771838648234
Ge 15.79172150490059 11.858160226129897 15.807829079292965
Ge 16.921758620350168 12.037988649379708 13.258758509117278
Ge 12.725616170453796 10.676275845971533 10.244126648469631
Ge 12.315849623054271 8.129677150192954 11.71817122340862
Ge 17.078648560946654 14.029362595373888 15.271309344115876
Ge 13.567276761657117 10.094169714620921 12.786693786766707
Ge 14.838299383643573 14.291471782810254 8.001944599197774
Ge 13.209494584740401 11.721968821726579 15.145984389756412
Ge 15.9042044443226 15.499187790902937 10.224123456511277
Ge 14.609316060560879 13.256295108495642 13.618928991384186
Ge 14.666183364523995 13.140151576760422 10.180725921535865
Ge 14.162988562853249 15.411643683469178 12.211912762028918
Ge 15.260893416619005 15.81761955326076 14.576278943214984
Ge 10.86072949959123 10.269514705452169 11.837394919930642
Ge 13.218289629735501 17.074712576106773 15.628797924617412
Ge 10.954240447012573 12.16226108681462 13.584335681171101
Ge 14.40420402399231 16.74335724250617 8.539809430612587
Ge 9.66495179889289 15.084264208706376 15.148756522246078
Ge 11.964531518427476 15.836687544529399 13.592563874579668
Ge 12.856772229690742 14.37330247333091 15.55561592117417
Ge 12.70941809338766 15.667604305987487 17.75788189459647
Ge 12.932617281223132 15.100149590012258 9.857828744477096
Ge 10.425083868218397 14.487840303669758 17.447474517605112
Ge 10.433457390066986 14.095903435418156 11.978720697388638
Ge 9.420775223892457 16.332698193932533 13.013962484974417
Ge 9.321909442136047 12.427795461306413 15.527337102370524
Ge 9.567893093929275 12.25684074470818 17.98725790076103
Ge 8.221465903448268 13.67542828401188 13.469106840000158
