33
Energy = -131.67487183 eV
Ge 15.972782612773551 12.39952395967353 13.67545678222284
Ge 17.41346798467472 14.336766097632301 15.012857511072507
Ge 11.396978810856243 15.87543822285183 14.591270026969868
Ge 16.226769348305734 9.667836187681509 13.131569976422863
Ge 13.315381706818057 9.590636713373371 9.911608434110343
Ge 7.773601219339043 11.454782025009978 14.905013934813505
Ge 13.20644222078368 10.586109748953362 12.569004040369503
Ge 14.261671515931152 8.224476709763673 11.99989756070737
Ge 13.434591235233459 16.68477983191882 13.233135752323435
Ge 13.379718767180337 13.543922591371226 14.582057804835586
Ge 10.846637565166867 10.521256155515536 11.438804973542204
Ge 11.143426772424688 12.466759564105478 9.801842582443163
Ge 16.98170548044375 11.809609530010594 11.415859497840684
Ge 11.997167819004895 13.31655414485209 12.247269186982518
Ge 16.008583080796136 9.571355605787964 10.391493141546523
Ge 9.558264946193454 14.781044021092512 13.113420744434784
Ge 14.7624108845779 15.397653729378217 10.952499675203027
Ge 9.083748220879702 13.126146574475944 11.141754245152102
Ge 15.352691037292713 15.061717534986638 13.655439002610569
Ge 10.155848095271011 11.576636600874687 16.158119828146603
Ge 16.344867654120964 12.403460781931424 16.399037428824222
Ge 13.42095895702445 13.739281059605617 9.219095014102496
Ge 14.435123214933625 11.849499157599004 10.670730256944683
Ge 13.596676237726184 17.946053733385547 11.070666112986771
Ge 12.094316852337002 15.712362295648896 10.941726737584505
Ge 15.156868239551162 14.839635028809456 16.446335213606528
Ge 13.729802413291349 12.690662665910258 17.10750558746393
Ge 8.303984052566921 10.92155177589483 12.227129194207544
Ge 14.254721084631425 10.900988730676639 15.052577841845796
Ge 11.27927729118796 13.952009487047626 16.3055683529752
Ge 8.579465371831926 13.84938492704077 15.35364096363222
Ge 15.671862273551728 17.408512943922553 9.832056311910348
Ge 10.124274315555448 12.184189056254832 13.735170917446748
