31
Energy = -123.68462537 eV
Ge 18.461616818665437 12.922931141831183 11.735462804961138
Ge 18.888487515286734 11.345634711477604 13.64965908892222
Ge 15.289398914370965 12.382656269033818 8.234613238847283
Ge 16.229930416473533 12.616295000819054 10.613100543650562
Ge 17.612968157132816 13.65217359178334 14.173969065994495
Ge 13.120229883113314 11.805926809671671 9.413562500383643
Ge 16.316768175925084 15.703803377647949 13.377037435979357
Ge 16.51092175957625 11.243621639874227 12.743993042927869
Ge 13.607932466696607 11.699618933973843 15.968928074967362
Ge 11.557205166488972 13.915743662863346 9.18853717504777
Ge 15.218411402687714 14.856887690601557 11.115290151723999
Ge 12.56012736175739 12.885982403265272 18.149920892537455
Ge 10.440467146961542 11.494051722147224 8.46687085633754
Ge 12.573418877142794 9.42766794690548 15.795857406417825
Ge 8.95859927840074 13.486956341627275 9.315238037482697
Ge 11.59412271440759 11.359047257153382 14.249585858796507
Ge 15.005620171693113 13.18375776959545 14.09082588245632
Ge 14.633934932899233 13.978047470059689 16.812324823983154
Ge 10.976703190836728 10.992073114502736 17.096062346350802
Ge 13.984019643898046 14.598257289433793 8.81162415497809
Ge 9.910762303709037 11.494911731693271 11.01786634716054
Ge 9.127223945828389 12.220108606047463 14.773154590123477
Ge 12.344509775868904 11.997162531689094 11.847540191983587
Ge 13.225856908421404 14.283051847363657 12.585467701012602
Ge 12.141919270289744 15.285561044374976 16.88706206924886
Ge 13.865919578419275 15.661682979731873 14.700184314632933
Ge 9.977639446317603 13.400681217830957 17.10329990860329
Ge 11.350304229721655 13.91679346835799 14.781341320958887
Ge 10.642280446123602 14.167942365396849 11.607937548975782
Ge 8.097890419204575 12.998613223262726 12.055708558121
Ge 9.24536571873902 14.863711702485142 13.657486844028854
