31
Energy = -124.47541049 eV
Ge 11.943057490134684 13.542261587515018 8.670836356016986
Ge 11.826283461376661 7.579018994521808 10.943307907953697
Ge 15.990173932815805 13.92464767805818 13.522565156694593
Ge 10.106657889056981 7.693901484707281 12.889560078193774
Ge 11.397387646670518 9.779141042510238 9.720907762211699
Ge 8.822126896308028 10.44246486347637 15.649246750478259
Ge 9.21118827344295 14.975045463827131 11.954119017017574
Ge 13.051480027202961 11.729657218256555 16.115492075942644
Ge 15.739017825668284 11.583396544353647 12.179969692900972
Ge 10.15139598677007 13.18104434372167 10.412653665876139
Ge 11.735815381560814 13.449827959335705 12.423748473954946
Ge 13.27204344006453 9.09058344842773 15.986238096001024
Ge 17.24089158007153 13.738757346586222 11.134205086159746
Ge 10.932643894828653 9.160944722315442 14.870819229107292
Ge 15.780045627928981 15.880266674224073 11.742726971367832
Ge 13.136096523612682 11.319705985493423 8.478655168599362
Ge 11.80049281063609 9.793169445156028 12.379666436903372
Ge 7.52733169510503 14.295025072406377 13.742789610878202
Ge 9.15995301606994 8.51063961142778 10.568007476165626
Ge 16.010066944283068 11.985840295745563 9.34477398639386
Ge 13.09166889812896 15.806002624957495 8.682623298640715
Ge 11.307341167428373 16.02786284363241 12.975432286988859
Ge 10.638907683799086 12.13516188374667 15.501554080576891
Ge 13.757274795982891 12.789681929330092 13.919721851897695
Ge 13.800091293287421 12.6038846166191 10.649642398960264
Ge 13.355127952859707 15.30562262248124 11.179420553713205
Ge 15.366509319640192 14.465584441954432 9.29431104006164
Ge 13.876116338710997 10.192655929163267 13.772962362007213
Ge 8.598558281259637 11.988147457997655 13.595535637842007
Ge 9.68575131776424 10.956973647469004 11.490099579058223
Ge 9.956196246145621 14.438579414136344 14.650246282062993
