36
Energy = -129.63194363 eV
Ge 7.305484352812236 9.892078181549408 5.500106341591126
Ge 15.8828432127996 12.485815018164809 8.377531398955579
Ge 14.306331074952684 6.8027368480174095 8.473626903331834
Ge 3.667894602596728 9.35325130652015 11.571994640890333
Ge 11.525180307333379 10.450349918573062 7.865351538220445
Ge 13.15811097941964 9.432599593882554 14.3009966969809
Ge 5.73006742455845 11.496599574903353 10.720283912465739
Ge 9.295597900862221 7.122998302761633 9.69768973782854
Ge 12.671461583850645 6.816950119413678 4.845270080376705
Ge 9.686281942255347 13.439631004566927 9.557721303515274
Ge 7.35713472805318 6.8360761888007575 5.367879295849548
Ge 9.495295923391295 11.68473760807774 12.50421649490713
Ge 13.077201471783019 13.129085365542874 7.384879044025146
Ge 11.89088563956206 5.302024135290698 7.377531063114227
Ge 7.372050935263771 15.074590164781029 10.727701318307124
Ge 11.183739920726886 8.599298040307849 12.043640677202758
Ge 14.164451512139163 10.751582831167092 10.215009631955366
Ge 15.722620785562176 9.390940702104976 12.459897378838692
Ge 9.165403867744786 14.76493203382144 13.15642049340002
Ge 9.4482519984659 6.115330389421423 12.71374416883905
Ge 13.932296323475565 9.113443480288923 6.5104339475245725
Ge 3.1528183517780497 11.25369190944318 9.379314195293349
Ge 7.187944115082157 8.15028639997272 11.955895858128553
Ge 10.087550192479728 11.296407503824952 5.257972878528711
Ge 10.144749803290495 7.688726686281485 6.29626618162874
Ge 11.25094639993731 9.658073605663994 16.872051250466683
Ge 12.276572419782466 12.30232749802122 13.50372292925756
Ge 6.555912590174448 7.3914270911316695 8.384009035355515
Ge 4.90546818800364 6.5599382785621465 10.879539513288286
Ge 7.847714753892665 10.398605290030742 8.54727940458971
Ge 13.980786909241749 7.1087582089301 11.536853924392727
Ge 8.252514387370137 13.107002143657574 6.873055508437301
Ge 9.32815143276665 8.881103772017806 14.750599053398492
Ge 13.90506561094228 13.835366702563656 10.210182997228205
Ge 10.174856541432055 16.237942524109183 10.715286899970879
Ge 10.021964491361162 12.13377474120428 15.610271218062037
