30
Energy = -120.19656547 eV
Ge 11.982276108538903 9.18436961258739 7.1298650999036015
Ge 7.293114856820593 11.730058453340714 8.245016686571736
Ge 15.11620126746121 13.022766271903091 7.350422739452576
Ge 12.692463481775109 13.639419716166138 7.259146101194035
Ge 10.570263158474221 13.76096710999909 5.855790037190788
Ge 13.67054366841424 11.003944082862777 7.787267939223387
Ge 11.031337076388654 11.34686726253883 6.360727730693214
Ge 9.478658925611143 13.107289232174999 8.110455250707275
Ge 9.449404290844663 10.171449705957073 8.33076958219632
Ge 10.62770575136029 11.426904404249589 10.211066853623123
Ge 12.8579997465017 8.071004749701558 10.00529355789075
Ge 13.776236603212869 13.134866845464252 9.68523007552472
Ge 8.030729421021569 11.460047028110283 10.676660786186075
Ge 10.427366493571832 7.796973953909145 8.966262934684076
Ge 11.242255197182086 14.027289243076133 9.833853715080098
Ge 7.392959851195119 9.303111184441981 11.823550822856918
Ge 13.017724676103855 10.558987138869556 10.394490201147027
Ge 12.165888089503644 7.884211773867563 12.534634068359317
Ge 9.52751083608896 13.395600941248253 13.96072377952677
Ge 7.6398064911760715 11.799470063623167 13.233956152733551
Ge 11.44855338114853 12.944862059098313 12.26425744375378
Ge 9.496504785704756 7.768644527362556 11.473055153638487
Ge 13.787675993799605 11.834096724474534 12.555938245399096
Ge 10.478018465607567 10.009086481923916 12.41442583707341
Ge 12.242875393646834 7.616059266094797 15.038407805849172
Ge 12.52634027002797 10.08196491581505 14.126390100616652
Ge 10.193582898068122 11.059744251081947 14.832650346293539
Ge 6.213095655126889 9.804115721237268 14.039519193692046
Ge 9.948182157544244 6.911052760842221 13.912694531889448
Ge 8.615628639432678 9.085678149331674 14.528380858402427
