33
Energy = -117.42290347 eV
Ge 15.894384393593201 11.599942669422628 14.48772774404208
Ge 12.852687277695981 11.32744293779417 8.746636327751416
Ge 15.57043046669243 8.544663642360767 14.476026784526224
Ge 17.534838287615166 15.07365903966672 12.972066120104003
Ge 16.726153811485243 9.234678940070996 17.23361337199655
Ge 9.956881174884698 10.620261499229159 14.296329603858416
Ge 15.28152356458036 12.352323936896001 7.188721049720492
Ge 12.105100030487725 11.823552795762929 11.699468676550417
Ge 18.48763974409822 9.432533564809308 14.712947771140335
Ge 8.419705512158519 13.399021033780409 13.121826105090683
Ge 12.815199406973031 11.735088094663073 15.790225158735586
Ge 10.018239168980715 14.04363601283538 10.033616781064408
Ge 7.000180140238311 11.275854883791007 14.927749451232613
Ge 17.813169880153602 13.126476257382457 8.691258148492691
Ge 15.412359987558906 12.009632453574639 17.48838471525482
Ge 14.167114270024657 15.799320321576406 10.218025997756955
Ge 17.303600583988114 15.78100269359577 10.055273351985111
Ge 14.86468490257617 13.375287800593554 11.979654317421137
Ge 18.712451058910045 12.126742895477795 12.881987658134477
Ge 10.988580262147527 16.016555106429482 16.736946747826718
Ge 11.521101763938377 14.722361935186841 13.968079360309238
Ge 13.96221462113601 16.70609689937735 17.045725465071442
Ge 16.712037035237003 11.225790401228489 10.761500969142292
Ge 14.339282941060201 16.20420034379982 14.038944071874445
Ge 11.58184453214717 8.757445019187788 12.476986727721203
Ge 7.929807370884071 16.2748800559479 10.622661711081859
Ge 6.390522456861821 15.562074763859027 12.999585902657337
Ge 11.019257844855249 16.464786330600866 11.538131443216269
Ge 12.110696137643155 8.704569370907578 15.448564233135635
Ge 8.152832855878605 13.679620628105367 16.303586790864966
Ge 10.774273432036258 13.142196923438375 17.75324015509542
Ge 13.405275821802338 18.868975423587493 15.056689773108458
Ge 12.976145464288134 14.25157847082303 7.875354272433011
