45
Energy = -180.94799875 eV
Ge 10.177826884382275 6.560180290145033 10.663089564282712
Ge 13.566787606670578 6.470539997697965 7.522055149609097
Ge 10.890533689359737 6.5293357513003 7.859175176456176
Ge 12.782302789391473 6.490189526656789 10.086951184646258
Ge 6.489039564452839 7.65003824718837 11.10394766262133
Ge 13.29848377359919 8.794509006207873 6.11451168378362
Ge 8.37685211350465 7.798258453333189 9.165031285629405
Ge 10.705074679254563 8.98374839702179 6.622214838119925
Ge 10.059919339805731 7.098052295795382 13.305569925901525
Ge 9.360450639066707 10.3762621422531 8.56669778586814
Ge 15.014395925780912 8.567820936470351 8.304494903941361
Ge 12.262228264325499 8.743971602198236 8.736852158847345
Ge 5.176686757669208 9.735447487218064 12.118890038858158
Ge 13.960405996607987 8.911105283801946 10.803430425311749
Ge 7.565147859561733 7.650597289757246 13.432844116341643
Ge 12.961215776848814 12.046229359508247 6.870171163052861
Ge 6.512429516238516 10.63759986494858 9.76127348465586
Ge 15.184581627869987 10.561340220377879 6.455750844544618
Ge 10.380363454325305 11.644495637398755 6.276864828248838
Ge 8.96747403106869 8.819029365140391 11.540977450441824
Ge 7.423008271524311 11.910157178532074 7.553158917831659
Ge 13.120293234947656 11.665687228745178 9.394264887498322
Ge 15.562538865901788 11.264417732587761 10.705652182799763
Ge 13.951711933368633 11.874001460535865 12.805392572009033
Ge 13.29089294170597 10.332852872790998 14.925500775356976
Ge 6.1551417002561255 9.564850361154091 14.506537729652013
Ge 4.501533153322819 12.108452072840214 11.38638596208741
Ge 15.578423561616953 12.459548644640757 8.36213269157106
Ge 10.885251554816483 9.54909118016656 14.200617176108192
Ge 9.779418891303882 13.288805971239764 8.243430185165089
Ge 13.619544616435418 14.261479187375846 8.100431450417908
Ge 5.38725718611607 12.946936537010743 9.049154442279656
Ge 8.2791952831911 11.359104900035037 11.691758488997229
Ge 12.14667526377785 10.218535448164543 12.119359987521378
Ge 14.306052007253376 13.722292354510467 10.806186041673145
Ge 10.654813450794165 11.659780982990169 10.514813770140444
Ge 13.943213156693131 13.00788020387278 15.199428318418114
Ge 11.564844109219989 14.157151150056498 10.031775449416761
Ge 6.350347728090977 12.08615464721888 13.207651691756222
Ge 11.465682156727661 12.477975812479361 14.826347597810955
Ge 9.122822617708849 11.399114034512888 14.249870971210294
Ge 7.755884310518319 13.379802948340156 10.012198161729085
Ge 12.690707405730677 14.269119567172497 13.120025703485254
Ge 10.168506074676891 13.621580775196396 12.39223815257554
Ge 6.992110427112241 11.734545786006684 15.672963213921452
