46
Energy = -185.1801621 eV
Ge 8.326394893180979 9.459833608338661 4.106969584191762
Ge 10.97680723704409 9.889124941639356 4.473805302869429
Ge 10.084515338136756 7.4039850342161735 4.75312903514588
Ge 7.5629331212214455 7.28761071222566 5.553818404665606
Ge 13.699714989951579 6.968221744128357 7.05375977274373
Ge 9.17727931465128 11.79491903551287 5.233283623794837
Ge 8.069310862612747 9.883388710685 6.7733377617964035
Ge 11.216370987941847 12.271370300847689 7.000266200124664
Ge 7.304115851625969 12.54253712641228 7.387433113156462
Ge 7.348755990697221 6.357065620711888 8.284800952998584
Ge 11.947812410860477 8.787907593527793 6.5646122757246
Ge 9.537101941519968 7.921422875749885 7.477550069988098
Ge 11.304271597763066 5.952138602677058 7.444853644822165
Ge 5.740206426873527 8.638296031753967 7.440611616907489
Ge 5.3804309829361605 12.613927312750153 9.08218086883123
Ge 12.619759890264138 7.195567974681745 9.530575189053115
Ge 11.927681553453493 13.931657450356886 9.026012856076584
Ge 7.652366127823587 13.696443632183191 10.041524021130343
Ge 9.623772913902666 11.962754098386872 9.372317857486083
Ge 12.120907049480033 10.44052879359627 8.639871642005211
Ge 11.169320610347155 4.8522482752584235 9.963923493841918
Ge 9.489736464319963 14.215658270804772 7.656723666739822
Ge 14.448145785697541 8.978189708086116 8.898102404940632
Ge 7.0263465106461656 10.445662138814848 9.377852388895336
Ge 4.387809549271197 9.610206817843116 9.412333404053392
Ge 13.225526446403961 11.901281918456618 10.639893031370809
Ge 5.316543031082353 7.163858707081077 9.814513590798601
Ge 10.796055925305257 8.994678109676734 10.367916053341975
Ge 14.27823761128316 8.249621398110174 11.507541703162655
Ge 11.007613974686244 12.99103228303948 11.417283434317161
Ge 9.836213560001902 15.13983987482365 10.256623817803876
Ge 8.679979834955695 5.376154211828149 10.493570209880195
Ge 13.218636980165087 5.66178916034373 11.617311891492507
Ge 9.330839883066652 10.366569198595553 12.117454439782648
Ge 5.123509187777455 11.16969074492601 11.493785931175134
Ge 8.350361989771264 8.05553186048341 10.145842574845993
Ge 7.531506246903514 12.225249844237789 12.168305219069994
Ge 6.562182976273874 8.122590303877503 12.012023705563239
Ge 12.345836194206552 10.035955512997218 12.293475651430223
Ge 8.215471231571003 6.199562933205157 12.986373583692446
Ge 12.666832555603458 7.550712349738269 13.456039060201352
Ge 9.703263754730353 12.655162403820325 13.63146161225388
Ge 10.593239173692947 6.7967591807217715 11.904601193623696
Ge 6.49858657671671 10.166561616489185 13.630390499735023
Ge 10.80200371505927 10.327030397760842 14.359836526594545
Ge 8.674890673373111 8.648901503452105 14.035307042732846
