47
Energy = -189.57194055 eV
Ge 11.174006586562239 9.54598126166992 10.59138094979316
Ge 8.309004525811655 4.483770467618853 10.700342498211274
Ge 12.675333336780364 7.900512771035391 8.813043166434904
Ge 4.3934515788589525 9.315297914977679 5.875568650959301
Ge 10.03489881151653 8.72466714259556 12.785465608019328
Ge 9.546590945596446 10.186389331900575 3.9476860977268466
Ge 8.371244490005793 9.108316233377037 10.659476591508257
Ge 6.8480732690702055 8.456126046339765 6.816533182496122
Ge 8.440131725326587 11.607255081655568 9.986247688053405
Ge 12.075175325773266 10.377602261775682 3.371363760873016
Ge 12.62784699539925 5.231386138109279 9.394571067731814
Ge 6.517634396441457 7.91114415202178 9.330238521582347
Ge 5.831515629589324 4.3235529727078355 8.58527493286236
Ge 4.823126634234569 9.83999477953799 9.605782668260265
Ge 5.126355487367223 2.6942290555228645 6.772251406592195
Ge 6.247710029094276 5.567755635745411 3.9674035247555923
Ge 8.003142859808623 10.796828006908141 12.637573987364318
Ge 5.991332980476691 6.437842540744336 11.370930019490718
Ge 12.783186138692502 9.968789437874488 6.184265988932639
Ge 9.596881489762067 6.614266224227059 11.253563450465046
Ge 8.293509815231806 5.716963969025737 8.28091292354652
Ge 7.166858849534819 10.900636455821838 7.679651184292653
Ge 7.367303891439663 4.276174274084977 6.165900386030319
Ge 6.018232531356305 8.186410783381831 4.122105965998558
Ge 10.22792436485939 13.772353094223831 6.406597842933804
Ge 10.338035290234568 3.8646867583472133 8.848297372294525
Ge 11.323481551391534 8.212635900710463 4.784548227079038
Ge 4.624079562433027 11.520221416079377 7.595258007060511
Ge 11.145940129520511 5.886167852017295 7.26383994646366
Ge 3.9387156419268 8.74925282647973 11.766081853254846
Ge 11.057962025367399 4.365906861823626 11.413214556681897
Ge 5.932843848712257 12.340068367957475 9.868306975577843
Ge 8.22713098056405 8.270327792824414 2.9289240828522627
Ge 6.430496833693285 8.61854403876917 12.90803964427983
Ge 12.249955797323826 6.963956019671765 11.466157801356829
Ge 8.311874565772621 6.942966356290902 5.26909022292823
Ge 8.741465595242234 11.771849512849714 5.8178278450439445
Ge 3.1645791551148275 4.139407508361036 7.805271369925931
Ge 10.977127621031743 11.477171612548657 7.477204347774282
Ge 10.060155501175188 7.706828322618755 8.874940085670042
Ge 4.692523559697608 5.221459226597617 5.935064287687881
Ge 4.3454865380326195 7.255516366007642 7.370562798400061
Ge 4.040955378112131 6.043319461191012 9.571065764723166
Ge 10.961545442712545 12.092223053886713 9.932272539548824
Ge 9.863840967141101 9.252227156786478 6.667148677589911
Ge 11.596925944088104 12.247522175209129 4.9569991061852825
Ge 5.350375518337694 10.979465516303643 12.041722558920359
