41
Energy = -165.96358974 eV
Ge 6.23749805498909 7.554008416276428 3.108400986134454
Ge 7.3277526381437985 10.030537259695985 3.88607041713795
Ge 11.494004200736716 10.019129147580058 4.625014488883325
Ge 5.0813857728055165 9.088702825649856 5.001263582990054
Ge 7.554237052501886 5.842135434727646 4.793930058007808
Ge 5.02397557791126 6.436583325011822 5.403973955144633
Ge 8.839189267635854 7.878968394701108 3.8977340627964283
Ge 11.342680290742239 7.22452376407856 7.018570522177305
Ge 10.517115858068989 10.115249548378666 7.122341949275621
Ge 7.187477649101598 10.348730238347184 6.5781091936223
Ge 13.122455592887615 9.365657245814944 6.660753943317982
Ge 8.7691497525717 7.867846714480492 6.478783196268691
Ge 9.909375977431022 12.0221404119181 5.423243727424226
Ge 3.3365312211390825 8.272884546880354 7.073183342086132
Ge 8.192980359281833 5.455467089263545 7.526272535993322
Ge 10.559828001889379 4.251630821910126 7.746811361233044
Ge 4.733355444248162 10.456418528023326 7.622268979478885
Ge 6.0306375283267855 4.498769718382383 8.619755786756874
Ge 8.124738942775053 11.290563721938666 9.231873052886352
Ge 12.548047563546547 11.950237180554167 6.27016723815282
Ge 6.220609537552879 7.963034144576365 7.1748068284220095
Ge 10.41519030528401 12.62008182939374 8.02024656747904
Ge 9.632259111404217 6.1586712498658045 9.748718564142012
Ge 12.493195530152715 11.030595076815837 8.798025000152043
Ge 12.393950731075705 5.883432319370365 9.182904942800647
Ge 11.313229740525342 8.488869119545253 9.426189647593876
Ge 4.7616006618005216 6.87001824413106 8.886623347539352
Ge 8.710389748425415 3.275803307314305 9.549123812437198
Ge 7.17683290231014 12.668648057168651 11.224055371768516
Ge 8.904716302655292 9.07578481383537 10.287223550288088
Ge 7.202024705641239 5.505952576673402 10.664958211867324
Ge 5.613667221709884 10.667729176595406 10.104542631467993
Ge 4.8701242580880315 11.710462886911078 12.290018792331217
Ge 6.500479904238712 8.197442700441298 10.454705294401707
Ge 9.358518617731221 11.17597294883375 11.867466765057827
Ge 11.434711173582462 6.158039702349628 11.678846981332669
Ge 11.32027831793993 3.6714071265367156 10.335259694609004
Ge 5.676058443377276 9.214246167648541 12.651739936855
Ge 9.309325006123762 4.5291677381141655 11.97702128921856
Ge 7.296761518894545 11.20364203272298 13.575592586253979
Ge 8.360460867119071 8.857615799908334 12.910209156579404
