41
Energy = -165.1916006 eV
Ge 11.563726206807367 10.587604539963149 6.178302247511953
Ge 7.39094454411877 7.323321085604951 6.000245804733062
Ge 9.611516762417661 8.934952703571499 5.526019133690934
Ge 7.372459399920087 10.410274627786553 5.587330977360234
Ge 10.261370181616293 12.118755976281813 7.833036884989053
Ge 10.327560919309176 6.597631692802732 6.6940717907158165
Ge 13.484102638510011 9.079832870056002 7.4298901745458785
Ge 8.067491289537825 12.854165775209784 6.656190390800576
Ge 5.252432834756867 8.984999847466028 6.357907784757433
Ge 8.344865019772874 5.310880110416705 7.932341618603153
Ge 12.81557049457401 12.339064017637789 8.938234019919808
Ge 5.889885629290694 11.112759325312858 7.832490931843598
Ge 11.106348611171864 14.44993712825329 8.98549885528783
Ge 7.750429638573262 9.179547742829703 8.065774981527998
Ge 10.876655115918151 8.852547217911237 8.09571933173253
Ge 10.871469261373553 4.598604814699297 8.663923502028851
Ge 6.004259013101708 7.087249969145253 8.377948693294313
Ge 12.690996279637659 6.572987400524947 8.028652603863966
Ge 8.564121425998628 15.022149777436256 9.136843375203041
Ge 6.416504345622222 13.622754728049118 8.484748438778828
Ge 12.14580584883986 13.72572943498981 11.35325574935299
Ge 11.714378587556679 6.72785886011295 10.452534631011753
Ge 13.709647024656483 9.874574063632718 9.901119283755632
Ge 8.807607992400598 9.19029853800066 11.192466205664987
Ge 9.272421331819201 7.071803835104621 9.710481475278042
Ge 8.331449481511646 12.186493588842605 9.694488915409266
Ge 11.111787016641475 10.54143862038519 10.169396596896817
Ge 7.24590972746737 5.4025856972523725 10.585604648335915
Ge 6.0030739703829905 7.638874796699053 11.398009323607178
Ge 4.898245723137211 9.260779875902593 9.509302069112788
Ge 10.051996276946891 4.747065962076817 11.214328286380159
Ge 9.505892761555959 14.06075802339507 11.370856355409543
Ge 11.212931836266073 6.242599879139359 13.072691800110233
Ge 14.257911211808613 12.036230438733742 11.319588498681854
Ge 6.597237901510235 10.472732215500328 11.298045896261385
Ge 12.458576400653678 8.922936056234576 11.973197284214399
Ge 10.099472547267915 11.654702508870933 12.272623942238793
Ge 9.94367889991694 8.663125370747823 13.446535067623758
Ge 8.364980500916134 6.444887835088477 12.837732504730262
Ge 7.23516313352706 8.922290453511131 13.421601221135099
Ge 12.532923301600922 11.33601368323342 13.16476979201346
