42
Energy = -169.05603531 eV
Ge 9.859356492214948 9.247756229125537 3.200882824523235
Ge 7.285183162968218 9.858439689637713 3.79464400787697
Ge 6.243301647862533 5.583213806405083 3.8560504472280783
Ge 8.30910187853223 7.469052190223695 4.386029190366782
Ge 4.4872423996250514 7.6638767849287515 5.150877336587605
Ge 9.239481497824642 10.89139612214683 5.302407788278316
Ge 10.807863348944007 6.890375567838501 4.838558561714963
Ge 11.577203179783666 9.406704938948684 5.316679808191495
Ge 8.251407429141098 3.893426914087626 4.677647659837049
Ge 9.491695815977584 9.678986546908064 7.556258076236275
Ge 3.9294910306539115 9.872883436211046 6.712940411425485
Ge 3.8955820785962687 5.121973751055525 5.775699042628163
Ge 6.594456257552818 8.581491791154757 6.253313967831502
Ge 5.7687803471302885 3.1510715132263876 5.096556515087809
Ge 6.306042586362141 11.242193770148122 5.962190270199892
Ge 6.7006308404814945 5.4893499358028155 6.476995442821937
Ge 9.044744531608863 7.032299571452954 7.118942285927543
Ge 3.4298548070727595 7.165703348579917 7.598121899287825
Ge 9.90580973447198 4.517382778482856 6.7166297390885426
Ge 11.570380220777574 7.795571947908133 7.633061271867411
Ge 12.068489522026306 10.486970004473164 7.761115938528163
Ge 5.139395552473732 3.90785165428083 7.88393747480646
Ge 10.172587762969476 12.34902496819303 7.884002637953052
Ge 7.569593505809211 2.9367959924893943 7.141028917506677
Ge 6.847457185136971 9.908047053505115 8.48848754092102
Ge 9.1477698094721 4.546504808765769 9.223495996697908
Ge 7.687229806860069 7.0437930379816835 9.535846512331933
Ge 7.538823006701966 12.4350671728092 8.207736572243387
Ge 9.565525481540188 9.495716109009681 10.394604108908624
Ge 4.393992556523229 9.253773454355464 9.151921668127184
Ge 11.928957418010718 8.22656322467374 10.37998295662105
Ge 11.241254454301426 11.627756351326903 10.379239403535944
Ge 4.900322102448247 6.454194906172519 9.611462799767175
Ge 3.948862534624146 8.034660466095419 11.389115503328938
Ge 9.951636270841417 6.484683788040693 10.789142533748317
Ge 6.801850524218747 4.642221003935064 10.349321184154666
Ge 8.727041303474946 12.151031432595852 10.535285751116307
Ge 7.882447185155783 6.253049666981521 12.30135610355852
Ge 7.856996521921243 10.31347858685184 12.22663119061383
Ge 9.653597378801019 8.643709450059914 12.995857462612005
Ge 11.80524808891539 9.911528720290734 12.297509964961412
Ge 6.445486497599377 8.312601270247988 11.620604988358116
