47
Energy = -189.58039967 eV
Ge 10.235762974630072 7.623685779165817 4.564861372052356
Ge 7.699319611978864 6.744352608512109 4.381418335428089
Ge 6.305781984632282 9.010744442362844 4.222628695115514
Ge 9.140766459292006 4.499789309692633 7.178033394238968
Ge 3.9443088690766936 9.066584355505174 5.505930458813681
Ge 11.870970766507906 5.579340743166164 4.986899254476553
Ge 7.761561102816961 11.38266381343494 8.531484247755623
Ge 11.301709925220475 9.846289424314572 5.88777670495007
Ge 6.962859023198029 4.7131004649918395 5.779420118489706
Ge 13.178455897851075 9.090771312197175 7.5325660488640285
Ge 6.913767213623586 12.823762891383282 6.012815190676561
Ge 8.524158306842052 9.316658616874625 5.702985235125244
Ge 6.070201707883943 13.35650959227218 8.460779806191372
Ge 13.408243935245693 6.49775141919232 6.871752141877185
Ge 7.7302120487114045 6.1679636560358855 9.421803027559303
Ge 11.671082559826718 3.826281136770256 6.942665545627159
Ge 6.050810111147735 7.274557511952135 6.534995670879953
Ge 5.843759259226942 10.536028242157125 6.585800553711504
Ge 3.641089975003244 7.423954417060896 7.638907927011761
Ge 7.934736324638487 3.4437869785704236 9.330814075146327
Ge 9.415456854006491 11.82406739692647 6.441800000396239
Ge 3.589400650310432 10.221262327135669 8.000549316492313
Ge 10.483871912426109 6.708841613193266 7.088963759575538
Ge 7.555756149538363 8.7540731875027 7.9752616319691985
Ge 10.671804950349756 3.467360336849602 9.431077467913855
Ge 11.018452394653162 12.085171726485312 8.446854692538217
Ge 5.741974763411505 4.793448500953381 8.289905268971875
Ge 9.721068936247592 7.469707580345024 10.568897439188703
Ge 13.474228036139758 11.417283186524735 8.778202665561153
Ge 10.598350274815882 9.296847842674065 8.657001061136697
Ge 12.124578044058303 5.777850915946313 8.938878259069595
Ge 7.6842935871054365 13.949793232073697 10.483452769904911
Ge 6.4685339307606675 9.062671705583039 10.27854313771342
Ge 5.288150228977978 11.409767302935402 10.044900682790592
Ge 5.128519247585345 6.336499074106998 10.368081519621763
Ge 8.829005917318856 4.62642281215322 11.456124902737695
Ge 3.8899889094646407 8.637129279052274 10.13121384808625
Ge 8.633567350236799 11.44450674843462 10.963842089238119
Ge 12.886093828317925 8.281116211369223 9.96677080445165
Ge 7.021837518907436 6.3050742123613155 12.171312325807607
Ge 11.296207248144531 5.521700602124675 11.410064040432168
Ge 11.968686168073 10.528255178062828 10.727410733443499
Ge 10.304716797705439 13.564105933012156 10.514377034732899
Ge 8.081748852488959 8.701706635715379 12.186201013316962
Ge 6.50338748111664 12.432380056094992 12.220230643226598
Ge 8.372563178420457 10.940130721688611 13.554739704213521
Ge 10.734392087429425 11.894442320448539 12.50719873884296
