46
Energy = -185.25967283 eV
Ge 6.764868650428305 10.002817794915488 8.758305946929553
Ge 7.580150980002312 3.591209218236885 8.909998631672527
Ge 9.036154759523223 7.688815971769697 10.273181520419746
Ge 12.549653843418195 6.044109695765696 8.381230147237988
Ge 4.719997559630878 4.369053106267326 9.532551658803719
Ge 8.91596467942597 5.2038530228079445 5.029787050265759
Ge 10.356354666033218 9.662585018419334 8.515628454708917
Ge 12.766695843002845 11.336188010674226 9.918378239780944
Ge 12.952515658582703 8.862879318338832 8.453376319704315
Ge 11.575958535514598 8.71045950353556 10.75479424233238
Ge 10.886105340123024 5.772014436179707 10.441274680385135
Ge 6.7541138206093185 6.087676605580303 3.6621198585251973
Ge 11.671297847380563 7.641114633034028 6.317538739158208
Ge 12.298547904548606 11.27361838898059 7.288403463068235
Ge 3.481737352587632 8.139677227967603 6.556396790108988
Ge 6.099042062572815 8.38211523329296 6.9014588422948115
Ge 4.034946141440545 7.3040713115623195 4.165705164579856
Ge 3.022669012608895 5.687817944406963 7.782546814497511
Ge 4.634000202438256 5.360490059805807 5.756500589200061
Ge 10.671025960272527 11.118092871173484 11.55074667192042
Ge 4.721331988753681 9.21603316749526 10.602241213988165
Ge 9.198174898483707 13.54336144578349 7.269929618760604
Ge 8.15953720836308 11.885226651680945 11.14376445024689
Ge 4.901410009331067 7.216737416951068 8.930218207070407
Ge 5.4273842502492915 3.0896766037230705 7.187811560158384
Ge 9.704803256748809 6.47745130473621 7.746914106631725
Ge 11.301774249189602 4.775513487060463 6.289140435721915
Ge 5.969802465926279 7.2578392205188855 12.218469505876563
Ge 9.836881189660064 9.511574384992084 5.8511962758788725
Ge 7.08056879310371 12.593662241910852 8.831093198276811
Ge 6.066614604715973 3.5686286687515287 4.579562112844961
Ge 10.421046544949252 12.038207833511626 5.431005364268124
Ge 8.652844757855396 5.518682733020463 11.961618003006011
Ge 7.384488426822736 9.459754007431398 11.277320286353945
Ge 6.082212304599335 10.594841746599066 4.832733790681002
Ge 7.083630142873914 5.4764782613130025 6.955816924413378
Ge 4.372774115621545 10.499801553739754 6.8276303603285475
Ge 4.651040500351019 11.586723930439014 9.153936967339222
Ge 7.990245847162056 11.282588086431897 6.474254855395138
Ge 8.403588565815944 7.878977358731061 13.048564789500661
Ge 6.855724581198429 5.903517977905183 10.063425423017815
Ge 8.0617630958695 2.939087401520355 6.241639531382214
Ge 6.053880558950689 8.538023002844692 2.9948880493732295
Ge 7.753104507404147 8.246632679910114 5.009462017343927
Ge 10.37012637713074 12.196671115995237 9.134506027253922
Ge 10.280043200445313 4.0222456060085126 8.549530361012671
