45
Energy = -181.09505561 eV
Ge 8.038689508399884 4.498845593960691 11.018106716739384
Ge 3.6517505552953313 5.168631084374183 6.913696766603959
Ge 10.263573924269577 8.466684259498637 9.278552120421999
Ge 7.687098437168438 7.236577527332625 10.670111270530935
Ge 6.423697070285457 10.738345285668483 6.8787405128257095
Ge 5.634959997578476 6.423065261959876 3.1826464673237083
Ge 6.129691786256375 6.032727717794029 5.7185597653778855
Ge 8.136883256415096 8.582355981816267 5.0248056690698695
Ge 4.477512546463298 11.397994572719853 8.46491060887741
Ge 11.853144670889368 8.409705283118434 6.7487148045275935
Ge 7.844276820150025 8.53307578700543 7.950477323507869
Ge 7.688902850026283 5.665529936020193 8.574334765410287
Ge 10.576576576223449 4.635055208717421 11.599370523049066
Ge 12.321208011541264 5.5060769907655285 7.110660627885119
Ge 6.950187345212044 4.1915789768285965 3.94639467655897
Ge 3.6636309549094723 7.056067498531377 4.91161449210088
Ge 9.141341096503323 10.59057385805414 6.252610870114488
Ge 9.749430658790617 11.80153287374561 11.784730792541163
Ge 7.33263172848815 10.400440457062356 12.028227120459887
Ge 7.444007347535885 12.986861101107378 11.764553687576887
Ge 5.7953165528518475 13.388755176979332 6.844109965401061
Ge 9.684451092945638 6.7651776441581575 6.353937416164003
Ge 4.999299796067151 5.936724407508911 9.437621443068158
Ge 4.113783024979415 4.477377491027696 4.323538320896048
Ge 6.658279973260732 13.017436526488236 9.195587832427863
Ge 9.364504393409666 6.728929674155209 3.5155576349105693
Ge 10.904387010407397 6.029608275839913 9.406790534953048
Ge 5.223828544110578 7.6646495565461175 7.5433963975483955
Ge 7.456242881233531 12.209339130023604 5.0507131391166205
Ge 13.137615170753856 7.354542862252913 8.722454811380754
Ge 6.714345977225448 5.891222493239402 12.798134529193135
Ge 11.816872553738492 6.146044153059514 4.393065693472561
Ge 6.128563890716585 3.6371919503602643 9.097022484880945
Ge 8.567975824690762 11.395562356569062 9.596564582585893
Ge 3.985888574356281 9.615810503699002 6.2323769436576715
Ge 6.285569741060324 9.852526061808055 9.718372647668334
Ge 9.251665558527739 6.5743462142429046 12.756658795343935
Ge 11.105987729811831 8.71034510062421 4.2985042148570285
Ge 9.868902365866672 4.311756604392128 7.6286705931265155
Ge 9.71298200967221 4.498982139142099 4.851700029294379
Ge 11.013452664278383 10.593777469219804 8.004212652505112
Ge 5.7416521661854025 3.473894951493065 6.273472354982654
Ge 5.949170333572954 10.03164737599851 4.357921274539056
Ge 9.563055538046935 8.972240187555403 11.719423973137186
Ge 5.239450776629889 7.692825724337284 11.35081144018747
