42
Energy = -166.23642076 eV
Ge 14.603450415416388 13.847309661903763 16.535299123830494
Ge 13.552327547608396 11.377559247305939 -0.17958780938804655
Ge 21.171561327200603 18.357418253994705 12.964891899442259
Ge 16.993254124639922 15.057927303859065 13.39603120321124
Ge 13.905772936379954 15.46573059156501 11.37756686448014
Ge 15.190885521493241 13.883773851541438 9.868652745907541
Ge 11.562188379797757 16.39359911764551 10.788237759061836
Ge 11.136564811305574 18.88903017444166 10.835586725742102
Ge 15.032618076628934 15.501013011995573 20.89864557960779
Ge 22.305407875086964 17.373974534454604 10.988307617015177
Ge 13.328288421199748 15.611526538208176 18.34276376892403
Ge 14.978681672775808 13.523268427803647 19.19805465147369
Ge 13.597560074189124 19.35308119406798 14.189339482321813
Ge 12.761418910757897 11.463771086832597 19.37658499568455
Ge 14.873381719825106 10.186825606539648 20.417574375885938
Ge 18.772031806012656 13.603842926652788 18.7253419589785
Ge 10.488487522951056 18.19116109002922 15.330470323244173
Ge 18.513375557889173 15.990670539447512 15.266696517087398
Ge 17.556801689993463 16.148630307269073 10.600003057333904
Ge 17.128526049886183 14.456041774842408 16.948517583631514
Ge 14.4878938730798 14.756794927852516 13.781256282137122
Ge 17.510036304646864 14.245800246136799 8.881317834582276
Ge 14.32723895819864 16.980882670768818 15.036103578527461
Ge 17.04249196791745 12.057065422372954 19.846841998878606
Ge 12.54393343604283 17.759846308266386 16.816341345213367
Ge 14.866882116536752 11.231868393207572 17.820742345724597
Ge 16.13632926089523 19.129180727593347 13.663417288922718
Ge 11.519280650787406 17.40945017164658 13.035891601077255
Ge 15.60085968674394 13.005674568813141 21.851404674397077
Ge 11.330632991098678 20.050852895881235 13.07178552460637
Ge 15.672193651227877 16.56567154971183 17.816198844802845
Ge 17.294105796618872 15.561397613647362 19.57580471223282
Ge 18.722890797727317 17.774877447399106 13.37454176659431
Ge 16.71895453847652 17.78412478076468 15.848518628939807
Ge 12.206271815183623 20.201969716447074 16.21525522902369
Ge 15.706600318765856 17.046628951962845 12.180494411896483
Ge 19.997692541505746 16.754947013389444 11.30042467280292
Ge 17.83231562889008 13.530603694086592 11.452049274635316
Ge 16.744157139110303 9.693756360872795 18.81595096899719
Ge 12.838023286749227 13.623621178330604 20.884551215826576
Ge 9.879758549413069 20.679837600766195 15.132576373277864
Ge 16.441920982456114 11.833415106439908 10.26172840041967
