42
Energy = -169.02022888 eV
Ge 14.808676168892086 10.862134882479355 10.856269994080048
Ge 10.75962740792203 13.438165285616405 11.48619509395297
Ge 6.97558327297305 13.470951131015974 13.481296026799491
Ge 12.270231488635195 11.166918367469691 11.94478457039452
Ge 13.006124348653787 11.018393993319545 8.891102597021943
Ge 8.18237800050033 13.687586041927243 11.12919271348334
Ge 8.801320593534816 11.836003063172187 13.079436706434429
Ge 11.457002139504176 13.758138656124046 8.98135245499689
Ge 10.774985998984226 10.494111689978562 14.186549951820611
Ge 6.725948118701743 12.285735887799781 9.37066749933452
Ge 13.989238697821698 8.865018398055886 12.408743662338672
Ge 5.104573243873421 10.856957076901661 10.831211065982584
Ge 9.055989318047466 14.667723877147003 7.941032778611368
Ge 10.651780153214093 11.197262864542067 9.870856061143009
Ge 11.378066749913325 8.61979984735618 11.954671626711814
Ge 5.939508176484891 11.031264919354836 13.25593721716492
Ge 8.156986268471007 10.597994383147856 10.796011120797113
Ge 9.624185097477326 8.257855777720069 13.70740796531176
Ge 11.324934201286439 14.757517583239544 6.453188248441828
Ge 13.254837144611606 13.060186633286595 7.189845001277388
Ge 14.554221514244736 6.383065803513875 11.476448478726763
Ge 11.2680412060065 12.299192426750004 5.3753802248460545
Ge 7.3918714541788235 8.96624753853982 12.748210343998707
Ge 9.359693132657014 12.142612692761384 7.584793467435
Ge 14.617554239391959 8.472013558680347 9.759531683887463
Ge 8.992953326954268 13.79573859822661 5.369084821464981
Ge 12.027645309649786 6.075368700818384 11.380206176280662
Ge 7.13472835606237 10.705438065535821 7.284764180937833
Ge 12.234227027621145 8.554253080912163 8.369626479205563
Ge 8.760587795491254 5.835568675594194 13.10195022925114
Ge 10.010458487600564 8.319816377115878 9.744816556257621
Ge 13.506783024304834 6.140402740783814 8.957792469126623
Ge 6.185176315002656 8.60781813648882 10.343496912869341
Ge 9.838234825476597 10.191752505741684 5.971993305642166
Ge 10.216098847762241 4.26490961025582 11.607614291908604
Ge 6.397806146089451 6.529566705521239 11.989893024416904
Ge 7.798355875658397 11.445863050137138 4.907687836830304
Ge 10.335224442805329 7.704744301402204 6.811668691177146
Ge 10.888190926688004 5.7607063718022635 8.917334756085168
Ge 8.013693237123174 8.412698293734602 8.102109198362818
Ge 8.727318331100966 6.092493728762748 10.43484921156567
Ge 6.5510302486880025 6.421879337327336 8.996865963685364
