43
Energy = -173.14202591 eV
Ge 11.267205477456892 6.608894900924221 6.780563319191742
Ge 10.591577442539476 4.98318327968052 8.741537708549053
Ge 13.23032288755394 8.32751083881485 7.306765160561465
Ge 9.241708353181684 7.353704795571771 8.37584301884241
Ge 7.876965581967751 4.926458859408714 9.171435321296402
Ge 12.439330423720595 6.8552004479846165 9.390633062540042
Ge 6.609870230421208 7.202811682711582 8.621073197499976
Ge 9.391092607566648 5.606752100310449 11.196356253462762
Ge 13.834095407872114 8.939296173805513 11.360892804057924
Ge 15.465456668456337 10.648597076844787 9.750577631154593
Ge 10.4974974332601 9.004583042480789 5.785140113632187
Ge 11.578907562533935 8.247154332370556 13.154161170567013
Ge 7.985392297213629 9.946812318225575 6.189704532095881
Ge 5.796810749077953 9.38772043216969 7.502106508911873
Ge 10.483997708917329 8.150996183003986 10.538595871249488
Ge 9.86560252455625 10.675165980739143 7.8181028538969715
Ge 6.748757221676203 6.638234112066697 11.17498809031546
Ge 15.089971886918546 11.119592455262314 12.516994550895078
Ge 12.929585639111933 10.19603313588006 9.124567866824966
Ge 13.871689770295657 9.453962772188698 14.16081185462815
Ge 12.148169268826036 11.07117920797348 6.596147071334477
Ge 8.930853688270558 7.684465980635506 12.660838559014925
Ge 12.236788109334448 10.95562849150301 12.121249263404888
Ge 7.336255899437264 9.426157586220505 10.003549369622982
Ge 15.53077651997468 13.146797358217247 10.88951548700072
Ge 10.536630567664591 13.179936042863156 7.212365480676679
Ge 13.65568863275259 12.681762502015607 8.993260706333226
Ge 6.627780104767434 9.321917199776562 12.588813581897334
Ge 11.135419056284668 10.517608114903682 14.457040269350376
Ge 8.011289935587799 12.407810642244344 6.8748067881402095
Ge 5.948059377772774 11.78568263017469 8.704549427238968
Ge 13.26346022200379 12.003940239317743 14.640332113110468
Ge 9.840044177253572 10.676386352018937 10.357070376872764
Ge 13.398944876960826 13.468347142402285 12.387951994146048
Ge 11.133262658104808 12.961974713552708 9.814158587379636
Ge 8.017696496911688 12.66689934056096 9.993153746551547
Ge 8.394053583382423 11.286486003176256 12.499434786127841
Ge 5.82362093543557 11.561996568223245 11.397553299798398
Ge 9.385935267344397 13.013804061796387 14.110680293636937
Ge 10.823175733813766 13.977030742767198 12.165763176025155
Ge 9.06589084080653 15.01778534669911 10.32368975378489
Ge 7.308547230565207 13.838037085703059 12.403825973742569
Ge 9.112664244634754 15.704024017386706 12.891261906732819
