45
Energy = -181.65708405 eV
Ge 7.3006665338656695 8.670017469245085 7.052264853749211
Ge 8.128963001782349 8.234931551516484 10.445618787298075
Ge 10.861244116427146 4.258671144277725 8.974281204788076
Ge 9.271978349776147 9.636041592947297 12.437826281513049
Ge 10.748488112212517 6.851328202439453 9.64505403454759
Ge 7.148867890462012 14.11259625428776 9.611539033729052
Ge 9.007362861733156 5.065977340395303 4.559092117588755
Ge 7.057444865486795 6.277910308242794 7.857480242353683
Ge 12.058127584948613 9.439534325634437 11.833553676765156
Ge 11.978043422025786 7.738911629000624 6.2300885554461765
Ge 11.003584571397097 11.310348053946807 5.428950850401299
Ge 4.77957296339531 9.546896688077865 6.156885133647026
Ge 9.735001022736277 6.1659694353739685 7.098755794627405
Ge 6.692761308976828 10.592417474842328 8.603559162988532
Ge 7.099455365425362 9.36652432279971 4.547485308018659
Ge 4.712640360276156 11.93640345005011 7.310720720436978
Ge 6.638503238678725 6.517204426566366 3.6269674246413364
Ge 12.485569248373453 5.305463609694289 6.71035309902007
Ge 10.146128528829308 5.457744233017064 11.85578760685167
Ge 6.514806288609019 11.851481089157993 11.245209972286984
Ge 5.532869550897649 8.807353484806839 10.349206296687093
Ge 10.331553936010572 9.667586227087115 9.716049836848711
Ge 12.444390731861276 6.62326969119668 11.901727514247371
Ge 7.798290573675438 5.607756890761265 10.495198649621734
Ge 10.50000977011253 3.6906538369644695 6.44729085948712
Ge 8.306944860311297 7.110703520011791 13.038884467084312
Ge 6.513523505717634 9.472024777866132 12.729510766398544
Ge 8.624453361684408 11.964669372474866 9.675111315664871
Ge 8.47237407093084 11.508511823759376 5.447023427756131
Ge 12.324703323535228 9.82240147460705 7.6426276970137055
Ge 7.165314131581837 12.848843525630027 7.2709584271417835
Ge 5.784022174533925 6.565543182381234 12.046273060101846
Ge 4.7465787877052925 13.471221996166456 10.443500677376646
Ge 4.838372886954361 6.575314361789411 5.542954350245006
Ge 3.768800480581778 7.6614500724631425 7.541370287943742
Ge 6.599314590192075 4.73928403329447 5.7355711903056426
Ge 9.041716659810438 7.625839463725251 4.450521584005944
Ge 13.049105656098453 8.183073350751739 9.629594197474566
Ge 4.958678925916888 6.395918133662321 9.468054394270961
Ge 10.803948045219489 7.796828697797366 13.680452263948485
Ge 9.812926258472121 9.377800249761021 6.724530921649918
Ge 4.190460895406606 11.05523215337995 9.716079468316904
Ge 11.135485880087714 8.989283135359512 4.1481285011460995
Ge 4.706221075202338 8.588841391267984 3.7250645113022056
Ge 13.229905313428484 5.563397632865787 9.25201655460733
