48
Energy = -173.85571756 eV
Ge 13.562838608203974 9.767921420074778 5.417719187614773
Ge 7.360215792665738 6.14799985931274 5.967199738220979
Ge 11.13145394737268 8.619765527107088 3.9288666708404514
Ge 13.810237156825597 5.3747880031852935 6.653580456821077
Ge 11.246796639106842 5.773702370010164 5.02481144155605
Ge 13.24700208819134 8.109413686805688 7.896397148345073
Ge 5.762405555378649 7.244710125242018 8.235980559427759
Ge 12.39987135389011 11.973962834371283 7.22276866474485
Ge 7.076884418207573 11.070058449585895 4.043778839749338
Ge 9.86187965714294 6.275599397976736 7.693476404078759
Ge 4.538072557161827 9.839594717306408 7.144810153122904
Ge 16.898400405074614 11.521930448745012 8.937849360523506
Ge 11.841815512476812 4.018013786514859 8.578024624798058
Ge 8.677948587694615 9.081189992999583 5.744796499346436
Ge 15.984364609958433 8.647503852977502 9.191144032528232
Ge 9.335308616041866 12.426198059692242 5.511272185647133
Ge 7.083694050120107 10.040924223832812 8.85632563285275
Ge 6.620155795684854 12.578156346677341 6.664855383969152
Ge 14.899164470566975 13.492279490009329 7.992353888399138
Ge 8.1436736153399 6.824047358930807 11.101250813158725
Ge 9.78907125004198 4.766804910644711 12.602074498571739
Ge 14.32198321355803 6.217084492402696 12.52961341184341
Ge 4.263444258424255 10.081247981715858 10.17056547600145
Ge 11.71208807409411 6.214355932623708 10.731870163576797
Ge 14.30536648034802 9.244264639556718 11.706535926177427
Ge 11.907827774237557 10.714598230628226 10.100601234915931
Ge 7.43203290905192 8.962584349601975 13.067513148516829
Ge 16.391339636945407 11.502397989594872 12.258102692548848
Ge 7.045640213608683 12.965210408843934 11.175252883653668
Ge 10.686387069819567 7.383488082985033 13.887380984681968
Ge 9.846467850917092 14.807531149818837 8.25233477869114
Ge 13.349783419931383 6.763551168725367 15.282291510614089
Ge 12.426751336389566 16.04456320251239 9.234230263314233
Ge 4.038425985141941 13.065541188691881 10.754243354110457
Ge 5.158094422560181 11.925755753393707 13.347729044750354
Ge 13.888691107802414 12.96600641839551 11.0425234655805
Ge 8.455570648591458 7.91903265458386 15.829016750855065
Ge 13.090475361606368 9.901555684380455 15.316036100111821
Ge 10.214793412773696 10.230099168316952 16.843496651878446
Ge 15.13151614524319 12.283408674827921 14.946256527922733
Ge 9.766492063730478 17.374184265880356 9.899229168410734
Ge 7.237125658468578 15.711731993161305 12.601585952936958
Ge 12.65896837611839 13.695444792349992 13.929635552721827
Ge 11.113452967496356 11.163627238518124 13.224326477753026
Ge 8.468187033585561 11.713835395000572 14.79229240028346
Ge 10.493475349175334 14.73850611581383 11.232298832856278
Ge 5.456999965128101 14.646135417346995 14.843178003504871
Ge 8.473308601666462 14.775636771888149 15.198467081032481
