44
Energy = -177.01571424 eV
Ge 12.728061239387621 11.40439406215227 12.41287549918087
Ge 10.435563277436794 6.1990904547766394 11.715755862969997
Ge 9.982794460840141 13.214014121575758 4.861796868888909
Ge 10.619922218912947 8.733530621254712 10.774274287206373
Ge 7.292087715720854 6.561708558637893 8.710931798521981
Ge 9.082073050644757 11.082561451039783 10.542417537097505
Ge 8.814510091004639 7.826027898107531 4.210166674686729
Ge 10.180389924610141 12.023834037475211 12.900174738695348
Ge 11.901812480019455 11.396778189832258 5.492341730007451
Ge 7.832752884279657 9.138525831035551 8.790317245994979
Ge 7.539357025006427 11.592255733578305 12.745806744747142
Ge 13.251456056163367 9.508548778691528 10.684284365473816
Ge 11.349172449385348 9.386608377123025 13.35758111069256
Ge 6.979521149584527 7.741086223640427 6.3544922769591645
Ge 12.828369824653873 7.421462868503443 6.175095988493809
Ge 9.963699101995829 6.449126139366584 9.200764707836575
Ge 8.838584594097457 5.62016481363672 5.915160318317128
Ge 13.755322010785608 9.336731472447022 8.022105548672128
Ge 8.973793591236808 6.17700884189382 13.882801313298588
Ge 6.429665084373261 6.806614511710295 14.138213802255812
Ge 8.198411070869593 12.971473569154917 6.91453481011777
Ge 7.089651865119821 5.919611053473369 11.675497927957501
Ge 11.051203450496327 13.501549579739812 7.217206052130862
Ge 9.787142071213719 10.79008355929551 7.282504742935791
Ge 7.103099998492982 10.409956097578407 6.545249722998702
Ge 9.330406049436755 10.623441040580595 4.684074284004685
Ge 11.490128693554096 8.777466537309493 4.3078693275376585
Ge 12.682492775739336 7.365698409002869 12.167102760927484
Ge 8.086788471283917 8.291916698797763 12.195552703025466
Ge 11.367541423711652 12.814965403437053 10.4976571597006
Ge 9.014136995741854 8.709974961567271 14.639033283146745
Ge 6.621643499588561 12.556583509849647 10.39590008292918
Ge 11.228010490788167 5.401025681037719 6.998220239272866
Ge 6.386365196490962 9.547063151185947 14.146078204919208
Ge 5.480594741594276 10.64221391844663 8.735026298759978
Ge 5.272579422918583 10.456468028513335 11.51350039170767
Ge 8.377068731080385 13.950810987081917 11.954960838519304
Ge 10.192846581609999 7.98247839995708 6.641566854689918
Ge 10.88578869235654 6.115444776448752 4.283167902596088
Ge 12.072193513443953 11.27218190631651 8.357082559630378
Ge 12.532640094905684 7.267333118198753 9.341098192637668
Ge 9.005416246385208 13.465975205337347 9.361638235599475
Ge 5.315948933464433 8.154880753886712 9.524804331766063
Ge 5.07407390262236 7.816411810371529 12.15839581554061
