45
Energy = -177.44428129 eV
Ge 18.43150409631911 22.658872094719424 17.63068748759873
Ge 21.188570053284455 17.136393559795287 19.470804346075198
Ge 21.625166112672634 9.368076728470214 11.774213185788136
Ge 16.89790828818412 18.07811494213613 14.818688027618874
Ge 19.674470407586682 18.46277153733531 15.243533661673531
Ge 13.047479656489555 15.129732745142032 16.01184698243858
Ge 14.217602492816567 18.79853822060478 17.682206577087047
Ge 15.73685495805307 14.625335696387221 21.941137012196755
Ge 12.931908292737422 17.740095546889698 15.711274594017652
Ge 18.309523964974964 16.185332354185093 16.12532271058072
Ge 18.94937499887908 17.114016092427004 20.773702358385854
Ge 18.78617419800974 20.8568805004579 15.8860647176582
Ge 18.294755678961245 21.401094527555887 20.165809635251197
Ge 13.749341653817934 16.22636611119564 21.52075283710271
Ge 13.86322038416471 14.32772877552478 13.484282955053285
Ge 20.90305447570761 -1.6109538795169775 18.03265139749212
Ge 13.877796034199642 13.499999163224986 20.563754205674304
Ge 17.8336653830016 14.71042098436309 20.21012851192477
Ge 23.082298548773377 11.048336937633808 10.883909748466788
Ge 12.691815649743345 17.49831775077745 19.42868957211025
Ge 20.718331158499783 21.382115024093494 14.248710297496313
Ge 20.81254055254659 11.801253647542168 11.815886371303549
Ge 12.419980970159678 16.713576041270326 13.17012502925876
Ge 19.390910696990574 9.870039473949586 12.72539206930444
Ge 11.297425992785211 14.469643826869403 14.110245498016653
Ge 14.809211843131175 16.471575040575733 14.42401699641892
Ge 22.015427262691745 22.507480701401708 16.110190668649842
Ge 21.702493145651363 19.02557360517991 13.74503383655276
Ge 19.530903325266106 15.5952931843278 18.396147429027298
Ge 16.25762911723958 16.972116960146266 20.104592726929763
Ge 10.682160742800018 16.563597943125497 15.624084920119888
Ge 12.593710667195941 14.268686111793377 22.813775188554622
Ge 20.457385173031888 18.919431091538932 17.68825112551892
Ge 11.477958680061912 14.757088010458002 20.68358981696356
Ge 14.403051466068487 21.328473879175103 17.06069951882521
Ge 18.284200419084286 19.006181793725585 19.077902171025706
Ge 16.335510725349515 20.44472000730965 15.663857142515612
Ge 22.331726709686382 19.999636289651672 16.024139026734566
Ge 16.6083168517737 17.86873179936243 17.47015970643854
Ge 13.853745280910884 15.175553255022239 18.544657582701163
Ge 20.579027027447566 21.365444085166807 18.628517616955836
Ge 16.48711781508351 15.239896586925754 18.0148488502876
Ge 11.240812654595377 15.724774143497257 18.298270185418836
Ge 18.472109633604365 12.082785120398691 12.857816112694323
Ge 16.387848468396573 21.17872869063461 18.616495997896976
