46
Energy = -185.22646348 eV
Ge 14.228431736782843 8.692089817659632 12.82713890345101
Ge 15.193163018700323 11.190561138097424 11.966343428110845
Ge 14.104595218890696 8.494507122478646 10.122928618890024
Ge 12.148316698069538 9.798710078812894 13.829806529137754
Ge 12.189854849695239 6.941061464406922 13.535096345766917
Ge 15.287907382935169 13.47039773033577 10.495875051347241
Ge 12.562994957023763 6.317542533854154 9.745485886091291
Ge 14.869696193241392 11.136529218598932 9.247945485601697
Ge 13.791315788227847 13.224053726555816 12.846709004813302
Ge 10.680089247098266 8.174933753711707 15.388348402173248
Ge 12.906253474826443 9.253390091991465 7.818734775439391
Ge 11.67133160091541 8.933295934902308 11.289535658883128
Ge 11.198221297009471 7.211983495998951 7.663479751204704
Ge 10.542615430075891 6.403586700860288 11.620559440195821
Ge 11.446173011275897 12.23739144136627 14.454575917663336
Ge 10.2905643938157 5.055577221431378 9.515957475093439
Ge 12.802793246278359 14.73846468564553 10.903901047377918
Ge 12.746291798724998 11.671198616122522 10.869445753597791
Ge 9.527423442421233 6.262819873238185 14.035782492385357
Ge 13.181564406332775 13.26750199500664 8.677033640865504
Ge 11.192182706891096 11.21378510913411 8.18002709637082
Ge 9.282778695840994 9.035174498739616 13.325704767861156
Ge 13.456483843060271 11.61513111183971 6.588808514321504
Ge 11.023958215632126 11.917791516554631 5.440532078023428
Ge 10.861622210691927 13.398166875793255 12.111299888065439
Ge 10.79939268141033 9.371949587307062 5.835403952731874
Ge 9.019403534924203 11.655177043496128 13.780067606757749
Ge 8.785802763114315 6.187961279981989 7.385511828128491
Ge 9.257171566967322 13.769360894397167 9.883891629728447
Ge 7.932427794644928 7.538294971719801 11.649591693803217
Ge 9.234242841582862 11.334526669747584 11.119967579034055
Ge 9.298448669310682 12.894006806702654 7.143030377103872
Ge 6.778091233049013 10.156911526734563 14.010361410845855
Ge 9.37404017110567 8.012307160156537 9.427549577873918
Ge 7.951590222924801 13.709697954083762 12.371617997724313
Ge 8.38856248215012 11.006778506185881 4.943384368998533
Ge 6.738288495285626 12.751393723758328 14.567115826409946
Ge 8.460734822830304 10.125578105580706 7.812544647296177
Ge 8.312488427228915 8.319386790504556 5.707166258349819
Ge 6.911743343425121 12.577530159681942 10.130724241398074
Ge 6.828898432755498 9.95564825808179 11.287066520255514
Ge 5.485679630452635 12.047286361958285 12.36135869762914
Ge 6.806850779043941 12.08669047693383 6.812534245609134
Ge 6.776367941331956 7.829871832520871 8.17205471261538
Ge 6.029675659496423 9.55193902818601 6.209656682252195
Ge 5.737253351758689 10.434887753767654 8.85457566685216
