40
Energy = -144.85178205 eV
Ge 12.49051564913288 9.40078618746879 3.7956972033277747
Ge 10.30721401673676 5.374485583504696 4.074691322324967
Ge 9.60482419438635 10.048753976331714 4.428706615019228
Ge 13.288714378770722 5.738955097748566 4.493318257408448
Ge 11.671884269803831 12.275798867799809 4.425199399068694
Ge 8.630127924657252 13.680734154352377 6.5249211172179065
Ge 11.799444707779248 3.6501053373626933 6.106707336979992
Ge 13.643548811610978 8.157600449737185 6.3181632935903655
Ge 6.2802894101480184 8.172116566984398 6.117215185996368
Ge 9.089718955284141 6.86984913513855 6.4244382336825065
Ge 7.038637368333804 9.96014782957 8.487706386122523
Ge 6.087049323523534 12.796968031866308 7.922504560524492
Ge 10.884621993747235 12.965197555306032 10.509967877151789
Ge 10.059627026661525 15.298073078822284 8.702857005941093
Ge 11.914440959569403 4.911749687472885 8.8792903914043
Ge 14.017456631861396 11.096370373559406 8.240758557451109
Ge 4.230692095844952 9.318425042640547 9.702664442769256
Ge 5.64463315345366 6.17037898779057 8.330200987891205
Ge 10.535202699903802 11.304724998927453 7.066378086949369
Ge 7.73854866560504 4.2265871435312485 7.149284024785542
Ge 6.167441475836751 5.603298650253454 12.409242560530682
Ge 4.4430113183466755 8.142777619195986 12.546384321767958
Ge 7.186483167800838 13.042419170479345 10.829943359291164
Ge 13.930507018374776 13.15918623548795 10.439477641155838
Ge 7.920869393309956 6.88585402664923 10.332185255292337
Ge 9.119623366195006 4.099483850854992 9.860920972905912
Ge 10.473571815911628 15.092838805262362 12.616373634482253
Ge 11.48452287382775 7.922173435599125 8.502180578583445
Ge 10.877533688885629 9.66775237624342 11.918438574198852
Ge 8.076046454829235 15.978951486987489 10.923479612111665
Ge 4.385609394851718 11.835324247031528 11.504692210301798
Ge 6.765304308600014 10.12991645325015 12.422881447301096
Ge 8.161590346228818 6.7530439276190775 14.413938132747345
Ge 14.130818943714829 8.796048489197103 10.14181563282678
Ge 13.695190153882889 10.789720653561075 12.443273826300953
Ge 6.754107986527625 12.695332390352032 14.210490363153092
Ge 10.597374273519689 6.332472926686965 12.873115302810714
Ge 9.403277007617978 10.141721212713128 14.628505771841816
Ge 12.030996151688134 8.43107551140449 14.504371652811113
Ge 9.590554881845971 13.2344267038665 14.929245122589379
