43
Energy = -172.95216196 eV
Ge 15.099313036851763 12.384635584995827 7.286292347076513
Ge 14.205171894878879 10.774422136859796 9.132207273152492
Ge 12.166161713080902 8.364052188557787 10.659131625758093
Ge 12.964266377544094 8.902060722773447 7.406764761377177
Ge 14.995860097434823 13.678221611437488 9.525171313173047
Ge 12.601939466002989 11.566994106282547 6.285457267309456
Ge 14.533875888478125 9.24961722480323 11.268408288763801
Ge 11.400355166505012 5.817773091298953 11.392266390946928
Ge 11.970107572622004 7.570295377477951 13.393499547005765
Ge 12.673028680738636 9.546286566321696 4.763835417304374
Ge 11.107376816452195 6.858324500916337 8.823139331390975
Ge 14.461152852953683 13.036147878811635 12.01223790532703
Ge 10.179004577590103 10.785065115044807 4.836376500258797
Ge 12.91940207913861 14.052718860222294 7.153146448856715
Ge 10.560977007990909 8.438875038196535 6.171414683765658
Ge 12.468562151189808 12.289214555594068 10.201021911310146
Ge 12.983476595292116 10.939623319318693 12.470159827947178
Ge 9.681830468670666 6.2307484448032975 13.670699272579917
Ge 10.958087646961717 10.37609641471099 8.168423423407168
Ge 8.974993767012705 6.522290505764565 11.042581941351541
Ge 13.02197823245508 15.040594407807584 10.649579625491008
Ge 13.463674752756432 15.087317531771884 13.261410876952672
Ge 10.283764287902109 12.719545817805328 6.657539118836113
Ge 8.544869356564417 10.099843079751018 6.857327010000051
Ge 9.907321168291512 8.915717917689129 14.56334569635507
Ge 12.3793292050168 12.648957100734789 14.39341286507242
Ge 10.632858360299991 9.7694210715516 12.177667023305268
Ge 8.686321014268199 7.882267218458187 8.562046016694953
Ge 7.882451562385492 8.103213234475726 13.00692043053145
Ge 11.035152319980861 14.105057699406995 9.120562663868819
Ge 9.77081551201185 12.574002897925116 15.021272616769918
Ge 6.880218202441451 6.198402022392533 9.583277586190484
Ge 9.172405819433832 11.92732039869288 9.07820374039417
Ge 8.585744285904838 9.341485117373134 10.696392042814727
Ge 10.967736671038178 14.521126132772677 12.951340829945055
Ge 7.624221831606698 10.619595816423745 14.61331646742658
Ge 8.867043640471525 14.926170649174935 14.408581152642437
Ge 9.94166584630749 12.362972574966072 12.222487075319696
Ge 6.073528187811101 8.28685423468444 10.847291472028449
Ge 6.848637962106675 10.943727636220354 11.945580212617983
Ge 7.5955960978871735 13.033839230163549 13.244545337214937
Ge 5.5700315384772034 9.05185911960662 13.742660348714354
Ge 4.438614216544115 10.014661943522862 11.592002495927973
