43
Energy = -173.03675636 eV
Ge 13.951319384570187 13.318889500672343 12.758382009894502
Ge 11.456595888666374 13.963197265989715 12.772518694493188
Ge 11.370839331738626 13.001511993745272 15.48978183317905
Ge 10.261642219002201 10.656206207839183 15.119806224069425
Ge 10.05480329159581 15.221192387826308 10.785911329766325
Ge 12.740835440624009 11.365999895391761 13.983241634927852
Ge 13.265299637144615 12.282409710044499 10.529019850553128
Ge 8.351669797654097 13.168507993594936 10.874899999101778
Ge 10.831478348199708 9.584100213984375 12.791445327600684
Ge 9.28965976328983 12.863554358882034 13.772998824072555
Ge 11.281396653069292 13.531087953421792 9.345146079792194
Ge 7.707618538545063 10.466698862204652 14.048936089192866
Ge 10.546211703501967 11.810656900195292 11.465610487816866
Ge 8.642184252213923 14.20179554513473 8.23796161409802
Ge 13.603594992674882 9.75437962170897 11.054864143992921
Ge 6.217416769212803 11.737710424591837 12.156076162525098
Ge 13.62335965831805 8.943761271349194 13.46300337047288
Ge 8.12139306199079 7.926502937174793 13.372749235880944
Ge 9.131359344229402 11.140770527999639 8.819654195451502
Ge 7.965171033549996 9.772426492836711 11.390456988482576
Ge 5.618185809288608 9.040549477258978 13.020096805203263
Ge 6.807073936751992 12.35678066449384 8.823871530464569
Ge 14.550197268145524 11.220994728624769 8.53879561521635
Ge 11.815233778466139 8.695024247181955 9.456194930861308
Ge 10.751241620773618 12.37596365634939 7.086476024474488
Ge 6.676295032848464 7.4290222609268595 11.21718438069769
Ge 11.882418204511708 7.240739451726162 12.502290510186603
Ge 8.263810722649865 12.243474424018457 6.199440794128338
Ge 14.83741980047626 8.642353574058205 8.967639677024653
Ge 5.3840586078578765 9.76145351072504 10.459761539440146
Ge 13.792134805192873 6.806275828073074 10.475784654022265
Ge 9.001554755881802 8.484639246081635 8.40082534425781
Ge 6.690857003290372 10.146804521028907 6.889570514589808
Ge 10.105713913333366 6.761251400491791 10.093582671624125
Ge 12.415644730427623 10.38710766886507 7.464776557342669
Ge 8.579350656640145 9.831580383252325 4.914481118188341
Ge 13.229907977114147 8.059017953743359 6.873688710698309
Ge 6.3935564753476015 7.942102505781264 8.36559906705193
Ge 12.110885433105931 5.977233991339992 8.640745761952724
Ge 7.538998186845179 7.571337833476495 5.939686276419494
Ge 10.26663056358715 8.3017029737482 6.13230804437483
Ge 9.248949321866762 6.02437377030638 7.365627688405522
Ge 11.736413390812205 6.099236968865686 6.049488793016457
