49
Energy = -197.56446655 eV
Ge 7.049673599572237 7.935693785488182 3.2856788796593177
Ge 9.590345166931261 10.093070855911085 3.522168948973549
Ge 8.149329832922673 6.299849147860409 5.016938569200835
Ge 11.599213459851676 11.977770696932733 4.10150958312448
Ge 7.258768933592679 9.855383974169765 5.071834445917781
Ge 11.987976801437787 9.210286745231189 4.443471741122267
Ge 8.90497284838379 12.279108680351804 4.959666319413455
Ge 6.6723262408328345 4.68996996493961 6.404730605612785
Ge 12.766004170756787 6.410345712655078 5.766764241145491
Ge 5.011293455836211 7.701930038983984 4.918494629151697
Ge 8.181495144399824 8.190392065599394 6.767221150214823
Ge 10.466400120002843 5.102472996656647 5.318208489265869
Ge 10.252143443403261 10.389425216120138 6.219927373148538
Ge 12.925706888421322 11.00941547345454 6.292523900953
Ge 10.346326073679473 6.540351651577099 7.513142238924518
Ge 4.720592673731491 10.110214992394216 5.813376333075905
Ge 11.053003766100009 12.963337731940328 6.590071988460204
Ge 12.24090307747432 8.562369786792097 7.244355802212226
Ge 6.990778645515563 10.974752865247105 8.629259835893198
Ge 7.743293053650852 2.882519146411691 7.976505603695657
Ge 4.410378824795626 5.942117445687445 6.745159504400366
Ge 3.7853169537626297 7.441572799231548 8.943241440572075
Ge 8.105081581167386 13.439928394930517 9.141818934094493
Ge 7.678702218228172 5.628924525623314 8.58755513086041
Ge 11.465722092508166 8.769685113597872 9.773991161226412
Ge 5.784057730449236 8.1647112127066 7.436585033811699
Ge 10.282617599704475 11.96404316141342 9.096319882992614
Ge 9.294025269873536 9.561034978231358 8.598351225166882
Ge 12.578246170432209 4.811089083427191 7.844408004657861
Ge 10.17828966766945 3.7402162625124884 7.515394229748691
Ge 4.457734156606543 10.162162348607698 8.425271509771653
Ge 7.8175842019336415 6.700761630199189 10.974231825083901
Ge 7.178389316356592 3.7399524860876494 10.581292104717221
Ge 11.56165413191914 6.123419532158001 9.828720744285398
Ge 12.538091329119062 11.156089822420007 10.148042144432456
Ge 6.497101331128293 12.287301879900879 11.037389454641009
Ge 5.215455619611392 5.562803797879466 10.33896263421617
Ge 9.040678730713683 13.442587443423497 11.66390427049767
Ge 7.24013844926538 9.693112675877275 11.000355909232635
Ge 9.584933702008168 9.119364015027548 11.984023428884315
Ge 5.148895331307473 8.202746553880864 11.28312978573567
Ge 9.487861553385251 8.038375646529452 14.27557142211286
Ge 9.661283624281069 4.330072903166007 10.104915681612052
Ge 5.964948504298 6.111515978750447 12.820491069294878
Ge 5.640204707370832 10.644160658485516 13.151968652257825
Ge 7.908774846004131 11.749639943743805 13.311024579211608
Ge 10.775809075210109 11.505332613485116 11.940409508706214
Ge 7.035305597998203 8.403896821298867 13.609162858839412
Ge 10.024412856457069 10.636961313061501 14.234699759832687
