41
Energy = -165.66960827 eV
Ge 6.144889984454008 8.376317842212417 7.622457665483219
Ge 10.711201537876228 11.804739405756306 5.085286068895351
Ge 8.143631470842307 8.112915162921944 6.043299255323673
Ge 8.210997566443938 10.926912623754799 5.652144484329055
Ge 11.416391317197473 12.616912475857136 7.430562317528484
Ge 7.549089520956715 5.772386445136563 7.708410651066922
Ge 8.162858292911045 10.022916560741177 8.28019575291088
Ge 10.611500546966923 7.35974799003373 5.878512726289967
Ge 9.019482146412107 13.570599086406387 6.202136315603773
Ge 10.471837773138912 9.766428220524372 6.749034420202536
Ge 13.803615056810393 13.356327224798138 8.17541412802991
Ge 10.151543630599019 6.652867513148298 8.265931588299884
Ge 13.38719951960946 10.393547205997153 8.494836332543494
Ge 7.058170508635239 12.324792504897793 7.653463341760163
Ge 11.572676536724636 14.900948247600901 8.9104205489362
Ge 12.704703575451576 7.714189527961202 9.368888820355265
Ge 6.208704607139568 7.026874765484915 9.792965382448408
Ge 8.780911375442527 7.899628475917549 10.059748494362552
Ge 12.940548876614406 13.624917250248048 10.701291328023611
Ge 9.29174508116806 12.940111271368934 8.892573655290716
Ge 11.036691761923636 8.591447155440443 11.20790447299802
Ge 6.753728132989492 4.516103308373374 10.038900123287432
Ge 10.869421355521908 10.687228850997219 9.260956603222553
Ge 14.95158797765569 11.884663996767562 10.144994072556425
Ge 9.43102632669927 4.461362215273558 9.538088302890646
Ge 12.121755042902718 5.091560330210735 9.627305321667212
Ge 5.5651157199108 11.436454197339458 10.940067324412281
Ge 9.464916286249196 14.12567748968313 11.165066184321283
Ge 7.694618259504197 9.93684764872618 11.503522002589271
Ge 5.225353312381986 8.922785465332531 11.778620398563115
Ge 12.722463736835918 6.575387308578776 11.859524403160894
Ge 7.8388742334200225 6.084610791835734 11.948771932664807
Ge 10.327644912644333 5.726075338157994 11.690543911978759
Ge 13.721289680660158 9.660697920777931 11.166965491352432
Ge 13.685316146987665 11.999669772674686 12.574091529295039
Ge 7.583170366686136 12.454945337425125 12.293232763637533
Ge 10.967408368694475 12.092162907642566 11.504224914859442
Ge 11.562162605662143 10.207335379938627 13.112172487868172
Ge 5.873266962119716 10.856600995837857 13.649431943782298
Ge 7.138286791983571 8.396683198785016 13.631968078402382
Ge 8.637259971420292 10.640677467681968 13.90913133705398
