49
Energy = -197.34657954 eV
Ge 14.639707948664022 13.437249684771293 8.02579222756225
Ge 15.71495413795791 11.70879819457904 9.704901639072407
Ge 13.451071411032023 12.966480133454425 10.388090980477347
Ge 14.030455013236296 10.849884849763567 11.945717673878226
Ge 12.46069230068601 12.68811276290793 13.350256844206285
Ge 12.56564121878997 10.699214396598377 15.368021149824129
Ge 10.34762925661926 12.47431876725595 15.15402099221533
Ge 9.990227082111387 11.06280004772623 9.876445588790792
Ge 10.48215793364275 10.653343332588644 17.05720116622383
Ge 14.520929913212317 8.513693570148307 10.687206236696106
Ge 15.543572259249991 9.335570019668486 8.358525893354686
Ge 13.699754071828123 11.090685113625407 7.791328382825579
Ge 10.69836773843019 13.314724047455964 11.002331043978108
Ge 12.387648292865938 10.08713320441809 9.915517002549622
Ge 12.446555727354502 8.68832932626851 13.612755633607811
Ge 9.495339994971793 15.298795032891563 9.660012637619264
Ge 8.750655072501194 12.01370346438863 13.096840105166484
Ge 10.995673666969862 10.687132690837402 12.532458432124344
Ge 10.82707605054169 8.345913122124081 15.819627884515619
Ge 8.083620698225845 14.36021020852433 11.928105346672714
Ge 11.832769734409444 8.51266375498529 6.286793919989769
Ge 10.942860086067066 12.539720824375092 7.753175746210124
Ge 12.143489939298798 14.59690065802259 8.646419136780985
Ge 8.658774713908384 10.135202126363579 15.18453465770645
Ge 10.946462984541906 10.865800602037945 5.7854360236972795
Ge 13.5747904036185 6.625498672804375 12.392584466384205
Ge 11.140978468792634 6.318361640538783 14.043705516769792
Ge 8.712229653697474 13.819645951817883 7.536633646659328
Ge 9.57373799215956 8.416411674589018 13.30967131210294
Ge 13.058828533566114 7.897661579847355 8.524159609632768
Ge 11.38720754904761 7.531700152382344 10.896468853531543
Ge 6.612122721035774 10.623692197218919 12.785326873695695
Ge 8.164177606886629 9.541330176582614 11.086459167569988
Ge 9.792358630956329 9.466875745997006 7.769666016889861
Ge 6.067528576914708 12.731080770648754 11.204033820813207
Ge 7.526827955659096 11.886857686616683 8.909789871980683
Ge 9.409011083788153 7.410762490425102 5.656432443892052
Ge 6.770267880986105 14.540579300235814 9.321026123025673
Ge 8.38747205796643 9.947868938318482 5.630009834996535
Ge 11.666826897225427 4.941163599915211 11.489755521971867
Ge 6.227217526364729 13.451327887339085 6.793305027967274
Ge 11.90437581341013 5.6395720562117715 8.926693210229507
Ge 9.265969502419459 6.074532838239438 11.939203612657439
Ge 7.765236783050736 7.268804581836747 9.957762901185102
Ge 9.703766075349785 6.890442992926583 8.228213512884837
Ge 5.895086425772126 9.947994035818178 9.516935682328137
Ge 4.691801240215957 12.40710802471785 9.04567268039942
Ge 7.205254839359864 8.20420779135352 7.30972916765052
Ge 5.93500987155359 10.783564805265263 6.907129382477399
