47
Energy = -189.15782007 eV
Ge 7.411127441273891 7.389448001017506 4.193254383923665
Ge 9.489675356734853 5.738405526024511 4.340060864608734
Ge 11.2367503423224 9.967285385272511 4.255920378561506
Ge 8.131654638979102 3.7901431061850372 5.495896889674258
Ge 8.718334580922425 9.492489253901644 5.021608394788136
Ge 12.866622885369475 8.392089439227131 6.085043659096455
Ge 9.816209439988922 12.137821757512336 5.2615470421829285
Ge 12.030859620516152 11.070583374326109 6.537820675623956
Ge 5.947725106953618 4.671989120107954 6.887698336848956
Ge 8.207555820054742 6.303838280345869 6.547285733392372
Ge 11.447914443151067 6.181133541047766 6.107831757728976
Ge 5.789706291223013 7.361745438268539 6.460465882424473
Ge 10.372856398642593 8.780705523263288 6.751556564704477
Ge 7.352036013030401 10.900813725298573 6.845080967782443
Ge 13.271899828066907 9.455865528676123 8.688530067963798
Ge 9.612473793208794 11.036052540793754 8.119008744116522
Ge 10.89536872863031 13.368239330153155 7.553761508438924
Ge 8.843470007802141 4.069864345646977 7.9146847493782815
Ge 6.9876184074801175 8.712906527869169 8.553308184868316
Ge 12.946162299274816 6.973670318723732 9.71270469817015
Ge 8.184245357929466 13.499670118991464 7.158477509214206
Ge 5.4210543219936005 6.3637722882154995 9.046923549595101
Ge 9.750849433209853 6.968923371713093 8.583255184609616
Ge 5.844526480859903 11.532567182248906 9.698850346818181
Ge 6.4796747577792235 14.373134855247276 9.410120722429134
Ge 6.703486222188744 4.001684029665706 9.476682912413763
Ge 5.353631647804492 8.993790249895786 10.696255884661054
Ge 5.657100092981293 13.386439591104137 11.858616284584256
Ge 11.47051446967582 4.97851451984219 8.420928990190026
Ge 9.168570847143668 14.659096718241836 9.481487382570684
Ge 11.020017934949525 8.856089790583901 10.14297626920662
Ge 11.523433985537155 5.837233478267978 11.79518885220323
Ge 11.670043920589567 11.523578225985839 9.712172359221725
Ge 7.807161360489181 6.3918612328649065 10.2531973686528
Ge 6.109753592137256 10.857821625259996 12.478719339477983
Ge 12.836564471299516 8.180421785643189 12.166891206324722
Ge 8.93104795928014 5.693535661327247 12.672186598644869
Ge 8.174697867669874 12.220111897734077 10.484105289468271
Ge 9.708171389697439 4.180920378071014 10.56225386871714
Ge 8.416816528178016 9.361543718580398 10.81750580517366
Ge 7.712356286733255 15.14295874806584 11.758773369346411
Ge 10.406238965270067 7.70132424056226 13.38512428257113
Ge 10.119961907644903 13.424449377594732 11.648078437588987
Ge 11.09376394708508 10.265722144961188 12.435738275553819
Ge 7.097201364108707 7.699948858318729 12.521295853242709
Ge 8.041911925480754 12.835336521357178 13.218417481997966
Ge 8.566923426905458 9.920201234241985 13.428448999490858
