48
Energy = -193.85588354 eV
Ge 6.62964875391953 7.123913758213045 7.327987076168642
Ge 5.5321377822254645 7.3556947777854775 9.793848078558911
Ge 5.193150361450361 9.442973048505 7.353707947028915
Ge 8.16653562642595 9.38855285634319 7.437999429275163
Ge 8.97599111763029 7.134795829677336 6.115728374267955
Ge 9.017732014788017 5.867290680146207 8.485891289249357
Ge 4.056287900225594 9.532574949908394 9.775790277435258
Ge 6.876079749232591 7.24289499801049 12.076421896653144
Ge 6.852721104237457 11.509535250506953 6.85644526968515
Ge 8.228751867863133 8.074333040318539 9.675679346695773
Ge 9.053451503665285 5.806920751332279 11.940441435066742
Ge 10.381472953556116 9.681187450090828 5.944007553272258
Ge 10.850361035556908 12.052054611704428 7.111878997200375
Ge 11.14708818278419 7.327942050267268 8.43276969108066
Ge 6.776830860346159 9.524997178856255 13.417897711053794
Ge 5.498954273806484 11.67001228035022 9.077566099765233
Ge 8.292549571620485 11.521754727801113 9.560896049711138
Ge 6.521532644911088 9.874570442161014 10.903820018333757
Ge 11.634402460745795 6.225855970959099 10.855448824686377
Ge 9.347631318605773 9.740437753077128 13.592403129697482
Ge 8.89663946650391 13.723419076007435 7.697553519619398
Ge 13.419065637811086 10.647803100522736 8.12573102307198
Ge 10.963442597051065 9.91205755359579 8.736706815139913
Ge 9.58557612942491 7.148629353549206 14.055239296249713
Ge 10.811732434030802 13.494490280256542 9.663638774695878
Ge 7.3764773632802125 13.041728469058528 12.03429487205056
Ge 10.156532832527503 8.2919680948716 11.588679417343608
Ge 13.332505784323867 12.824865824577973 6.811353455561835
Ge 12.587487880952033 8.57708141865707 6.768012715568715
Ge 6.988662226500111 13.90723771306411 9.569559946832248
Ge 13.080851591284448 9.021095173278967 11.323257015093505
Ge 14.259505766746255 7.3266551579520796 9.668537814729241
Ge 13.615210422807943 11.633101205797644 10.829193470528619
Ge 15.45355693857588 9.770891849028981 9.573978012126869
Ge 11.605808580178048 10.322248182899001 14.786150184417455
Ge 9.900002866420662 12.30402938689805 11.798623296032204
Ge 12.06460258949529 7.94585135328763 13.694471200682612
Ge 13.379944525151325 13.657407010211715 9.281097018660537
Ge 14.12452300094334 6.494785438084415 12.355784686368885
Ge 9.934710753880243 15.906554834691612 9.059399507819174
Ge 9.340995799931571 14.343746533549844 13.681913608527195
Ge 12.271915467745476 15.70079433499278 10.410946344303888
Ge 8.974604742826774 15.151208131107905 11.321437534910979
Ge 16.160967092640544 8.01831152576201 11.604639592402837
Ge 12.159712234856595 11.992717338199421 12.904832002961909
Ge 15.758300243870325 10.750235772680103 12.030664868684214
Ge 14.587865662064324 8.873792177274167 13.675841927649769
Ge 11.732687918846903 14.509215747802646 12.762163577422589
