43
Energy = -173.81870158 eV
Ge 15.387020668695758 9.230633182292431 7.270898756244278
Ge 15.174589917048214 8.0863709400214 9.79030584307543
Ge 13.747545209110706 8.252425328253562 5.391249293086246
Ge 13.803529562701163 10.234868743011855 9.276510633010703
Ge 14.148955453649425 6.882628864354171 7.649218754727329
Ge 12.944297138147423 10.304335417895965 6.718264049671726
Ge 12.752554908760098 10.900955959579903 13.315319936763773
Ge 13.239212140885838 13.245412908966 12.108410973316197
Ge 12.62622783275615 7.586219972664708 10.283475777566736
Ge 13.757762533563051 12.890625433849628 9.205432204482367
Ge 11.999316263480555 11.409920132140963 15.748073914134315
Ge 10.989348953332934 8.53648814751407 5.988902731698581
Ge 11.207072082793559 9.118902098404797 12.099986109730281
Ge 11.220287933266501 9.469432601258424 8.88223591509572
Ge 10.514587655221058 9.647288366459875 14.582453293589404
Ge 9.659694567297636 6.926762047292951 11.851323683727319
Ge 11.477577148226416 6.8205092318023945 7.952936913149876
Ge 11.687191794585743 13.547180985465065 14.237832093075811
Ge 12.212953448383056 14.794687105973257 10.231666841923872
Ge 11.032168979312038 5.398765864934361 10.17876471223751
Ge 13.031484576848507 12.967127991674078 6.640444507479163
Ge 9.309689346284966 12.226108474156732 15.310786840833467
Ge 9.291819851574578 14.61104630130376 13.837990807339716
Ge 8.612354058809085 6.297567974040645 9.310308435235216
Ge 7.95285379376717 5.930602257225462 13.470523687932502
Ge 9.795674608461823 14.880925742814505 9.15549266891027
Ge 10.499805181091906 13.315232910920608 11.712533573729475
Ge 9.674760296817276 10.981271387106416 11.1729937070473
Ge 10.474431194462005 11.783858020165662 6.01462276119761
Ge 8.98081848315297 8.461656519131102 7.77245121166146
Ge 11.1626205661795 12.425433292494008 8.717208536545579
Ge 8.245127419093848 10.575637311380198 13.452827020849488
Ge 6.672019397335146 6.122080436744602 11.17084577827396
Ge 7.083732066823469 13.081992923621703 14.027398398106435
Ge 10.81670451996772 14.35416476078251 6.565033362159759
Ge 7.984521508321501 14.36562400502483 11.517476544973283
Ge 7.924046162008233 8.553889798707354 10.760342187142854
Ge 8.725366899628538 12.841261556946145 7.735006681917032
Ge 6.92765866466246 8.292517756971158 13.377101170059795
Ge 8.077373048565107 10.61220810450283 9.148045599882957
Ge 7.057686657123842 11.96174550108166 11.575827894268867
Ge 5.316986388958863 8.369353562347262 11.438697899966202
Ge 5.552801867246471 10.619861632092814 10.009570709984045
