43
Energy = -172.95908245 eV
Ge 10.97944326261895 10.686142967114135 4.230709210749389
Ge 8.737718841275278 11.166100051927481 5.808078265437487
Ge 12.246920031746004 8.583336099923981 5.274566436199248
Ge 13.036943627952006 11.27174670218114 5.642509760817749
Ge 9.8990749694186 8.846069794398497 6.39187321080628
Ge 10.810564117888681 12.722140415238847 6.232049641190424
Ge 14.712223774361455 8.870488735260693 6.490287613534074
Ge 14.201184201875847 7.337495228900935 8.610764478697638
Ge 7.097475588360959 11.309093254562487 8.065047117674824
Ge 6.797538354622508 8.649529439257673 8.195545856469499
Ge 10.00288841225407 10.872374759111153 8.225547846869981
Ge 11.677978484712758 6.985596260984935 9.09333118501573
Ge 12.426049369311857 12.224737318922534 8.257906765622737
Ge 14.942764624403457 11.294348523924846 7.525632075886672
Ge 12.476037258306617 9.477447694630452 7.915688641171022
Ge 8.79052372852298 12.912163461947598 9.567196788053229
Ge 9.164844601418048 7.1697733039703335 8.406280597591104
Ge 4.634765342692197 9.688052198198703 9.360547012743359
Ge 15.101876650958939 10.814538492628426 10.316856533738838
Ge 14.416172734484299 8.386434385525499 11.112237584830009
Ge 9.347188941720857 11.400906263088158 11.617923037038793
Ge 6.149048730272053 13.308693624697751 9.527181285695452
Ge 8.170028412053705 13.92628372911717 11.952091993090736
Ge 4.534935842696498 8.805575126735441 11.808835111725605
Ge 8.812687479476098 6.373546044274289 10.931959948072368
Ge 10.193598135477822 8.747239583557336 10.445753247697077
Ge 15.169360173249267 10.32738530756196 12.992942364517914
Ge 14.212003930940687 12.644900617539124 11.962654905448066
Ge 6.0323007178156285 7.113156312645544 10.328925151200274
Ge 11.811466421814874 6.731387799076145 11.666880473207003
Ge 11.589437452822414 12.810919529331066 11.429949088072904
Ge 12.568069170291691 10.325311390277417 11.240698146815317
Ge 5.51676062002917 11.428692995652487 11.215072147524033
Ge 7.178386023290721 11.975239936506329 13.23555721671454
Ge 7.330185017133051 9.629709517060784 10.620701850015868
Ge 4.632467158882213 10.785082786750186 13.599743153089834
Ge 9.890025873833913 7.73171210783303 13.07703242160027
Ge 12.70094667994778 11.372713057235881 13.79964282122661
Ge 12.965323930348235 8.682729806630038 13.42143938026095
Ge 6.866067301782223 9.660545560976004 14.536665117170728
Ge 7.173238795911978 7.908156269441311 12.626443578735307
Ge 10.175264451370284 13.093759962443539 13.690268166330029
Ge 9.338249358794531 10.458772180098354 14.059011368790117
