45
Energy = -180.97828065 eV
Ge 8.891324527812777 9.821190580307157 5.85840169539111
Ge 7.500846600855428 9.177305383334637 9.409245530012607
Ge 10.58624862828039 9.807283962058158 14.266835809610814
Ge 6.556909670467208 8.532800813055982 6.9082328377694555
Ge 14.13406906222179 11.054371591299377 7.043524448557677
Ge 14.06328092783484 12.144650842929392 9.405522943984653
Ge 7.536974658867761 14.74987350252964 8.197074711360852
Ge 8.989256155430306 10.18943139430329 11.990943896986764
Ge 10.63556866447317 5.27278258048648 9.105073312289798
Ge 13.100132447176323 8.568702360866867 6.864812975517418
Ge 8.032187649293805 11.921135004105027 8.748772160158397
Ge 6.343482401224515 12.897446901770039 6.713190834346766
Ge 5.504260387936629 13.071085000147802 9.203915100541812
Ge 10.62453885612754 8.968801419226958 7.7771818887298
Ge 11.641615096060551 10.720304374759046 5.704257547105339
Ge 12.190728967501318 4.923114999912693 11.317990690880846
Ge 12.812030137693375 10.181713591516356 11.196479984201357
Ge 10.034714398242151 14.094287694128719 8.613554229450477
Ge 9.957031547009624 12.340294276262002 13.591949142944621
Ge 11.624356290718195 6.719203565896104 13.166526335559574
Ge 11.603968512609743 6.287151927200953 6.686664754482514
Ge 13.781851923512876 7.210844580566273 11.483522591851695
Ge 9.081423353903546 7.011942064158136 6.556469131178946
Ge 6.4231425144096574 7.313636372919974 11.13855346652211
Ge 6.657842224917138 8.922721378602018 13.400487665909257
Ge 4.831043933237117 7.900631150023958 9.045720645138582
Ge 13.172649086440257 8.94944525268248 13.638407019362326
Ge 5.31195234725497 9.823596046454123 10.870983670758516
Ge 8.990826557929699 12.76826317464886 6.437712018751021
Ge 5.27817773387477 10.484322526800698 8.13703076715962
Ge 7.634131217677988 13.671074727847959 10.727118087190513
Ge 11.777607761241887 12.1556880712009 7.9546330541631445
Ge 10.292623897984592 13.845449519713478 11.341620745893618
Ge 12.639011902424988 11.56456900166355 13.667560807389107
Ge 6.8339279783712765 11.630158484581331 12.31634485864502
Ge 7.9400539462909645 10.988540097099325 14.617085863369168
Ge 14.493260916090014 9.432262865717023 9.196698769054546
Ge 10.773940537736356 11.387538208272014 10.224680282799003
Ge 13.16218266484872 6.368245666547636 9.05029290402866
Ge 9.544457228022987 5.783439762822764 11.503099869780387
Ge 7.253146741609614 6.585210218242663 8.67712162962577
Ge 11.2050742431925 7.637257598284427 10.51577223268593
Ge 10.74039575014977 8.265078984824028 4.880890432661455
Ge 9.011019011019771 7.867245752820224 13.355111007911205
Ge 12.813027160686989 12.996202948076055 11.49922786895304
