47
Energy = -189.72449867 eV
Ge 5.4099196496633395 12.724333873453283 9.008699850336477
Ge 7.059528888330486 11.429917721676317 7.318435369017474
Ge 7.259171662692603 14.293935760040444 10.03569534965151
Ge 6.864498793114779 8.796511216000741 7.237103581503588
Ge 6.253267574883665 12.755289604469223 12.036376644051813
Ge 4.989752399281483 10.569957080517502 10.67549366273913
Ge 9.692090906276313 13.51678715428352 9.685728199281401
Ge 11.210644082936192 15.601842478153154 8.994947098102614
Ge 7.595924960725584 11.465811667494465 9.907117009607079
Ge 8.96574001488088 9.614564668098751 5.546685591191786
Ge 10.592009968283321 14.077439143309762 6.973985686492974
Ge 10.876885897024513 15.445004319741075 11.617896318314877
Ge 8.425534877384605 14.376253468746693 12.582791028325996
Ge 5.8425182815296655 8.342612899955196 9.569334766859813
Ge 8.498693482368967 11.900651441813137 13.632527047124269
Ge 13.22217654533712 14.148579763742985 7.527510950416175
Ge 9.67263877811664 11.65984592227031 7.420565017705026
Ge 11.673140531765695 10.063924333988597 6.553469795964882
Ge 13.513062506607692 14.961690917119824 10.470849359594478
Ge 12.604635953759411 12.265369956572604 9.559977044459544
Ge 10.76849771661201 7.709566111016191 5.609805018585833
Ge 7.147923934629147 9.98264892872511 12.089212755358352
Ge 8.593364022501886 6.783049323531527 6.849462763434092
Ge 13.886227721258946 11.57066060591232 7.2795106504888425
Ge 10.496370159260765 9.913207943985174 9.208042568932923
Ge 10.488215309796457 12.591493325913147 11.941570408955128
Ge 8.609164929011092 8.166947269406103 9.133851203236883
Ge 12.551563935702793 13.751954405529453 12.929726571758902
Ge 12.838930193561144 9.380424806609957 10.544650748348193
Ge 15.289957837225144 13.384278518579826 9.094004422373814
Ge 7.408848699371545 6.854979799093326 11.05265037693172
Ge 9.8849183278878 10.024348442605922 11.85646801734477
Ge 8.527781206183633 7.708460856366498 13.559858453200194
Ge 8.756023020628112 5.414619352581895 9.169029728632225
Ge 14.495204949125505 12.572737969347566 11.525004233209277
Ge 10.208312882190734 9.617239354617482 14.513293444230339
Ge 12.45855125794974 9.73825768766965 13.135521958806418
Ge 14.88874829469966 10.661429154721441 9.587899523470538
Ge 11.145037982937396 5.871742625520455 7.667279323882932
Ge 12.212612619060017 8.162795517347762 8.207855017810289
Ge 10.364555706807087 6.995383585071853 11.830317206691635
Ge 11.642716893793102 7.242446594936518 14.316344249107765
Ge 9.55448716166678 5.3816518766469486 14.162291967188336
Ge 9.64557033524131 4.270675209424287 11.75117213538636
Ge 13.05757534805675 7.001618003971675 11.893836722607189
Ge 11.640998241853335 5.1671263732879815 10.343686260587939
Ge 12.055262829999085 4.815825634171548 13.163244232634257
