41
Energy = -147.97137288 eV
Ge 13.019682911207546 6.870241842876175 13.077414357597116
Ge 15.107785220930639 6.156315253584959 9.10982886046502
Ge 10.281483800562423 3.8100104273783932 9.652295257869794
Ge 16.859817421128046 8.351877228165508 10.278383113720755
Ge 14.266371597428112 9.464157970044816 11.79526850616448
Ge 11.061266809996708 8.642393408705434 14.549517985348611
Ge 10.371726693883067 5.820570152640077 11.92683573284309
Ge 14.776499289564201 12.91789868128412 11.067089235987778
Ge 13.190392885302922 10.862549640087567 14.393602403984668
Ge 10.109428060569355 6.857452844889368 4.8075773112978935
Ge 12.49247089292463 7.754010349859224 9.244442066400081
Ge 14.410382031510316 8.006855780793803 6.787799274928173
Ge 10.131361806539923 6.324677000709893 7.861370396642398
Ge 12.223339670912175 13.37247760291639 12.673103267636737
Ge 16.19515920417475 10.185072857203078 7.966782936886981
Ge 7.269528395106841 3.9204810180486853 10.168407851886482
Ge 6.824259588192611 6.103221197905718 12.397557499021634
Ge 13.35023833711059 11.161275539701936 8.850360672200795
Ge 7.389514067124924 9.840704559211186 13.375243455927892
Ge 11.09642170984431 10.512984617197862 11.984035206811997
Ge 8.522257505497981 7.950962440614556 10.573218469614673
Ge 4.496689838971309 10.609337492676964 13.440154276268652
Ge 13.366338419629802 14.449707763058925 8.708397754310333
Ge 13.19125708673785 12.722578745275563 6.092230430922743
Ge 6.643589436128028 12.531114223795019 14.683685289012017
Ge 7.698228984014093 8.476569947058731 5.7012057678645345
Ge 11.603912759835723 9.563712639584011 5.127318686302311
Ge 4.36225979059246 6.409104458512243 10.604468125730893
Ge 8.331794941956055 13.879705011203491 12.571509648763632
Ge 9.693527560370066 10.314403092176311 7.413447522230058
Ge 6.701172905024919 6.515331262959094 8.558670013523068
Ge 10.607593764895771 13.484204270075594 9.67816669663853
Ge 7.839937918694184 11.44758645569209 10.540099962820035
Ge 10.301861361238943 13.411008674186023 6.49002742545324
Ge 5.127200190170138 12.9014312326935 11.055012112287924
Ge 9.004260766883837 11.057656370215641 4.482674074770197
Ge 5.518323907259952 10.049835250689013 8.583086298310311
Ge 6.318969356742925 15.701094321434317 11.086885029640634
Ge 3.5102310079203574 9.330084780474705 10.648662994898073
Ge 7.153356195456836 14.124868292668888 8.594951114124605
Ge 4.3392031330705185 12.83694557006154 8.118831010514025
