45
Energy = -163.5465728 eV
Ge 8.565330117326141 3.7030750364754317 4.15153602648455
Ge 11.055586139392943 2.8669637388742872 5.666279188961313
Ge 13.035850892449037 13.11237194017522 7.336017411384777
Ge 11.81652787581085 8.51614484069335 8.076606960292018
Ge 11.000359980752195 10.31088945963702 11.801033604655636
Ge 13.764604800401242 7.385069010764203 12.151641406029313
Ge 5.093732435675542 13.816138684589292 11.525254702569788
Ge 14.531313582034185 5.315281165267036 10.019014948284843
Ge 7.720428305377025 8.397278068852756 14.298690387424797
Ge 5.438242510296706 9.76516920102793 3.3887911778100497
Ge 8.763356304418991 15.028789245987905 11.639884923703836
Ge 13.886423800051436 9.606228420189296 10.011733158930815
Ge 8.362152267874015 12.832994683254578 5.686311891166036
Ge 11.59294161738378 13.995302508777758 11.751575674691798
Ge 10.702384982051164 5.780486041631327 4.79613326733321
Ge 10.890365832090433 3.8888487143344417 12.142079409304786
Ge 10.081331150308944 12.274645079995993 13.851239480520341
Ge 4.266595215214584 4.793021676650679 6.557826623584513
Ge 14.714025319050979 7.53207771836943 7.908965644706943
Ge 10.827102339122243 2.1953209071419058 8.629041886391354
Ge 5.294547481471452 7.668250502695167 7.233052643029332
Ge 7.6365342323161975 12.057691859600151 11.765065754309571
Ge 8.805733001783528 8.182903034157048 11.433624973898365
Ge 8.472284506186764 3.0658776854097027 10.394509249182189
Ge 7.780953120777111 5.569853771830908 8.775398983297533
Ge 7.081662774143801 7.18257150156388 3.76442644227412
Ge 13.17689741433993 10.345199111447108 6.03830115826969
Ge 6.609876659500087 11.231087535740025 14.56838194654359
Ge 8.857460114776847 7.87668372775811 6.13867060954524
Ge 4.749759479979135 9.004107302219461 13.787722593791589
Ge 7.982858297404186 11.367197058293788 3.036772981699848
Ge 4.514015440709918 10.460426497980128 6.209451992736582
Ge 10.89219709885979 6.783780229031006 13.185703582334789
Ge 8.631698818430234 14.795503384825173 8.630879488500142
Ge 11.580332768605132 5.025860999647704 9.454567125250367
Ge 11.31501796389494 12.49418352003994 4.938405756331036
Ge 9.646603287178 8.809097651544585 3.333817605786398
Ge 3.4504197911472305 11.611850733421251 10.252857933347274
Ge 10.649465175219321 12.51594927206053 9.171585263223504
Ge 6.989101616654131 3.3973091723304085 6.7515797409794995
Ge 7.126262431686595 10.899887681405014 7.755152404960019
Ge 3.355580139964484 7.452162290629623 9.542099054113232
Ge 5.573746456621104 13.476389623922058 8.55965291585516
Ge 4.849307283597435 4.772171599876562 9.559959922666845
Ge 5.360221422771186 9.329100354983112 10.819894348944551
