47
Energy = -189.02030904 eV
Ge 14.943856605671513 12.994350128287936 8.534868601890254
Ge 13.833655168970036 10.46832340786292 7.960971866859158
Ge 14.114252538680967 12.009201578169405 10.977495790680006
Ge 13.381576632835518 12.767132511334443 6.386835935226585
Ge 15.288434216761349 9.71030141591259 10.131528430651523
Ge 14.1896098030556 7.387529422699711 9.414589702357866
Ge 12.331650879560895 13.504934500807897 9.820515849693317
Ge 13.204476363403618 14.988758242935432 7.917167451833811
Ge 12.884752077757243 9.468059367598098 5.758429867448686
Ge 13.916499699240264 12.822584429197326 13.421639825328205
Ge 13.126363157504349 7.2039957879545975 7.046169816580731
Ge 14.578413798723611 8.941956603318197 12.908617263057293
Ge 11.753264498838154 13.753287620634595 12.38739082599375
Ge 12.747709928190618 7.225810487954716 12.498066282223997
Ge 12.722131288863636 9.647079548650185 11.058239573953973
Ge 11.425783895319821 11.173291011344551 8.71387880164492
Ge 12.870273361086706 5.470049435356989 10.670125804568697
Ge 11.576153397765701 7.79698982583542 9.359655879580789
Ge 9.904942638002446 12.292288718419641 11.217336790436413
Ge 11.055209473927484 11.43193220149268 6.050861481116636
Ge 12.750923225155445 10.587926585548198 13.826124733746303
Ge 10.91519709575061 13.647348487002946 7.45667771418319
Ge 10.495492550994038 8.143726638609012 6.5350824753947805
Ge 8.74691954924831 13.877349423917217 9.343432856722444
Ge 9.56921529749284 13.527816343166599 13.83655212230233
Ge 11.069231932868819 5.605788870694977 7.495699777032404
Ge 9.498619053553835 9.363332504339846 8.61641062442758
Ge 10.41318444488541 10.097664674421145 12.628713063098022
Ge 10.417983766181825 11.163516360551515 15.214504233676132
Ge 10.28114128940796 5.747399906247867 10.270008959026658
Ge 7.730591020637498 11.531842417848374 8.796342292444534
Ge 10.13413874569144 7.528661161345637 12.655249223117089
Ge 11.73793836232278 8.255074437232704 14.863931069530448
Ge 6.218922693194733 9.94909604132966 7.204045972273933
Ge 7.881294216217154 14.098353759011632 11.861503727654727
Ge 8.689348744726564 6.346413866639947 8.1629304742607
Ge 7.18367070917212 10.560868863789672 11.089771534391001
Ge 7.7698986587668015 7.943533265354956 10.05591462455858
Ge 8.087904330074199 11.227003981401563 13.762186393263384
Ge 5.874622748311725 13.80746180081574 9.913252235496092
Ge 9.041690847490253 8.776496582366422 14.893891921268374
Ge 5.0238943420712365 11.648436317692061 8.575568502375747
Ge 5.4195118641840505 8.872511696355264 9.43344036240694
Ge 5.883346482761963 12.420797902233442 12.450721911429092
Ge 7.34399580725433 8.5007436749198 12.640797782791957
Ge 3.8066353792093355 12.335519260502489 10.83161796675175
Ge 4.66166766731506 9.896100485615976 11.70314926024465
