41
Energy = -164.96120471 eV
Ge 15.699917363631908 10.228387951639524 11.564222220780845
Ge 13.762580629178686 11.739180697016147 12.750812153830424
Ge 12.838230972269953 10.414220023484871 14.861217834943849
Ge 14.67768946527979 10.929469838898223 8.910424143058812
Ge 14.01353975197282 8.91087791332317 13.039141818587744
Ge 12.699503202037741 11.520517763863614 10.439436725775684
Ge 10.957828153402144 11.052125846260905 12.8840867633935
Ge 10.604553313919721 12.98927715023506 10.046749987351761
Ge 10.148883053622825 9.921504493243068 15.215499994206757
Ge 14.300757623706346 8.567254632048916 10.029547734031887
Ge 11.458271370953234 9.292829907921304 10.867340440338305
Ge 11.250714688685756 8.192987087223205 13.561056389161168
Ge 12.539473056582782 11.0884595884127 6.498088074663845
Ge 10.61586336263017 13.027654715542647 7.385050502979848
Ge 8.409976615186766 11.834116376926685 14.34564910930081
Ge 12.684272949960663 7.1339592343682465 11.498611641501645
Ge 13.867533625053289 8.912700404776196 7.361883596298137
Ge 8.973097845783986 13.225244959492064 12.139606626729083
Ge 9.220745297124552 14.985115992690213 9.175883404818649
Ge 11.044934512136049 9.567568591197906 7.883614385573906
Ge 8.259608037725652 10.662640404163433 11.198342541674148
Ge 6.394386405962999 12.38226667558644 11.924118198967035
Ge 9.26616090620536 11.161788031141075 8.825068675012167
Ge 8.612268126633259 6.518751235790001 11.915759394688198
Ge 8.548406373367625 8.953259328317635 13.079155943794875
Ge 11.677703686726296 7.007376801986308 8.041274934042105
Ge 10.337450455803873 10.314967538173251 5.25164048474765
Ge 9.274287919862056 8.036691370137115 9.751426339197009
Ge 6.980179431026091 14.734063971211908 10.980763040917973
Ge 10.65712860768456 5.912978471195162 5.9245542585305815
Ge 8.336273375827266 14.46043872187648 6.736630431758924
Ge 10.44088135244923 5.647292487520064 10.084295197816274
Ge 8.422824652233475 11.790583409344242 6.355645376159111
Ge 6.757805832709695 7.702043209659345 10.43425252445207
Ge 6.3154470022417 10.260397443871174 13.673764891077157
Ge 5.66171441145926 10.009502209028186 10.97800226082632
Ge 9.442408949890968 8.090763205622 6.328661210658597
Ge 6.951174564570277 13.512725614484886 8.71076837396295
Ge 9.002738795226898 5.723334667225561 7.887318173916706
Ge 7.272040135509332 7.61462322869669 7.800533100551277
Ge 6.705924239321083 10.992756613971759 8.297295543461683
