41
Energy = -165.08188381 eV
Ge 14.21642950846031 10.505372537003879 7.543176390707312
Ge 13.045139342953457 9.853122076986894 11.385821566645092
Ge 14.456462138286826 7.7344280369188425 11.211179656754659
Ge 14.122900583727127 8.076839903877866 8.51766091855503
Ge 13.611131126593596 8.217882202746194 5.840121232065276
Ge 11.811525372805665 11.559148912648961 9.66535784988754
Ge 11.808573403418615 13.687378569656271 7.731800336495307
Ge 12.74476998381977 8.624257776324825 13.885008068023451
Ge 12.317628552583582 10.539831035215911 5.676802987831362
Ge 11.83781620464244 10.980496958421467 13.379864932923224
Ge 10.700587780805575 5.568417517235514 9.513644222204338
Ge 11.81468151446124 9.429142845859573 8.089876481758498
Ge 12.943502637016994 6.194347353117135 12.856588358764029
Ge 9.909791680293836 13.96762388440281 9.669524380914758
Ge 12.01413865311536 6.7751761830367565 7.506736408848396
Ge 11.66700713377221 7.567503876504569 10.925168427113384
Ge 10.54618531958505 12.810509735385224 5.44849603406756
Ge 7.330309385247852 9.496053848795498 5.914549002409392
Ge 9.43301992487604 14.775409618978411 6.987240266143947
Ge 9.699451091880597 11.899802350687558 7.832638722199557
Ge 10.44795270484239 6.833246251128632 13.3811032303956
Ge 9.218388228928797 8.480607800555559 11.642437198603862
Ge 10.71615196442608 8.433580751752666 5.904357293868828
Ge 9.969579243426454 9.220632503721907 14.233852614854635
Ge 7.927141465284745 12.670865145019778 5.995983595715723
Ge 8.597564720751597 9.371726969890597 8.191358289628296
Ge 9.863249303683416 10.980850892094754 11.371432051034795
Ge 8.356756596121153 5.952020577998667 11.562848458532635
Ge 8.595059825109514 6.930442812873689 9.049568308101309
Ge 7.642482884875913 13.40674075957581 8.511555504128498
Ge 5.6655258678799125 10.164013800134851 7.687874639838171
Ge 7.110556698807321 10.384217793993654 10.11754206478359
Ge 6.119555550887382 6.388793216827485 9.960298015909375
Ge 6.3448348666233105 7.314423135135271 12.91130730042626
Ge 6.6422073252799505 7.268249632523307 7.348882706849703
Ge 7.586528114545368 11.917096669220188 12.245410405672228
Ge 7.5336035030080994 9.557327843928139 13.375290327668237
Ge 5.35480988289783 12.277094248603046 9.056587766926963
Ge 4.441211808568583 8.086121359014706 8.72602953895074
Ge 5.296025823765389 8.827651540386764 11.141572926961956
Ge 5.057853299762899 11.463535874401241 11.543558202936874
