46
Energy = -185.68991571 eV
Ge 14.851632151266173 7.295349397779299 12.653771109156482
Ge 12.525044607976827 6.528799919365651 14.00876297700862
Ge 13.59276618039918 4.967667804192532 12.09867586626779
Ge 14.561348047896997 6.456177029458703 10.072158305284898
Ge 12.586237698014548 10.81573197434339 14.421997746163044
Ge 10.740313425764937 5.223953670924794 12.421765508118764
Ge 14.247533482202474 9.13415880370419 10.72540636469738
Ge 9.498049642012026 7.749079277702775 13.759999122966247
Ge 12.673244160429533 8.887783305596203 12.76924264484412
Ge 11.896048296907445 5.550586886132521 10.140834123541321
Ge 11.488171531065547 7.64505911262742 8.753177472438548
Ge 11.877696993610831 10.496832920608595 9.445847360796854
Ge 13.753135255521109 8.630950484772733 8.149284800059467
Ge 12.313728343503405 12.215595569228492 12.320862609846024
Ge 6.696270099198231 6.811872506419701 11.137774575706386
Ge 7.554684901534808 6.265609497064883 8.681799399738729
Ge 10.061657534756176 10.276494688466224 14.2756877392382
Ge 9.371491988220985 7.522847676347416 7.23807500788484
Ge 7.009280795879829 8.594529395080476 13.036400587378017
Ge 11.79692205936055 10.975580442331816 6.51802214174142
Ge 10.787996752793338 7.715036264696866 11.443825709073684
Ge 14.191649265894663 11.75661313487816 10.60812609612467
Ge 9.803230073467157 12.921927968469193 12.565698686034157
Ge 8.794527807476737 10.46811251775954 11.978903028920625
Ge 8.571306988096794 8.548823510635408 10.071125461936353
Ge 4.9796209723641205 9.042763868393266 11.32040963562927
Ge 12.761696915951815 14.706056507572598 11.543131461558366
Ge 9.616718488486686 10.019665375624724 7.502788666061132
Ge 8.175683654453598 11.9718439669999 14.42325006827216
Ge 8.924135196231868 12.084261440732877 8.866606357479535
Ge 6.721315177447517 8.386018007423539 6.982338140626795
Ge 5.159942381718218 7.464252513381328 8.929642070947969
Ge 6.321045210228037 11.210423199347774 12.641515516339593
Ge 14.00756184848921 14.387563961319044 9.139181994036104
Ge 13.938955944512044 11.356514384190177 7.94994984938769
Ge 11.40097966386015 13.558630727797361 9.447186109178952
Ge 6.221636502993373 12.461897618659762 8.677801441242444
Ge 6.444480860734584 9.898492226362503 9.230277392962897
Ge 10.099828505186252 15.3100794531142 11.011906605934225
Ge 7.402741866793669 11.08852416625974 6.5878940510212765
Ge 12.213322803842457 16.461910355063637 9.587319009143874
Ge 10.344949281790312 13.156023543495479 6.766113161372859
Ge 7.594320149214618 12.900050621249326 11.05321648673524
Ge 12.169279168554908 15.052504125601535 7.267180739764462
Ge 7.877619765584142 13.791036391272558 6.944945242741948
Ge 9.764546946567304 15.676094639249335 8.424999279921888
