45
Energy = -181.17104363 eV
Ge 11.933406508111437 11.061606551284187 5.944143168838999
Ge 13.924488440296008 12.097213475278558 7.357527901558414
Ge 7.575549089287137 8.43947458114095 5.069379690420778
Ge 9.877709440541562 7.348149547146065 5.759833093736248
Ge 14.523140543140359 9.548546815901405 6.650038138390309
Ge 6.245533035484193 7.026347469239936 6.782975632258379
Ge 7.024646973700282 12.808422085149132 6.084297636893206
Ge 12.086689920350553 8.447885087488803 6.290193558949097
Ge 9.5097914507837 12.223627720130073 6.66372897960295
Ge 8.678090444520251 9.754716704590036 7.113523647982911
Ge 5.870175104247087 10.284395066627049 6.454456221543642
Ge 4.358901508224715 8.470599620164247 7.687902280130731
Ge 11.969906249358814 10.797315216584511 8.617096644290523
Ge 7.07896777713032 4.798979290443093 7.987863899613597
Ge 9.539134628809931 5.586407445891943 7.624992379786485
Ge 10.074223198635387 12.893028534036656 9.149877187981346
Ge 7.611854715772808 13.901978580259915 8.393126524080746
Ge 11.289879007821892 4.1222442282284115 8.798129487778576
Ge 6.707407695932133 10.100825698783625 8.993792706799116
Ge 13.503347151547318 7.618487773635149 8.315926792952917
Ge 5.259560405215677 12.304357142978365 8.215664459152789
Ge 7.847753074100111 7.367444214080428 8.741317941499853
Ge 8.998245056358876 4.006403021491883 10.067696029514149
Ge 9.008026737821103 10.84819651878363 10.45149649844774
Ge 8.099087664221093 8.198690661032895 11.261355150788404
Ge 14.418816245517274 10.001015196065907 9.263814614968076
Ge 4.511675245317744 10.776527014714553 10.781417495552546
Ge 6.677548899276798 5.703151869992591 10.532917305422622
Ge 11.276992200101276 9.444726902183698 11.33136993826257
Ge 12.619284962259599 13.344925732324025 9.475213533466071
Ge 10.822491111374175 6.13662059419667 10.269963915121073
Ge 5.2534802380328065 8.22043478692512 10.196414053035303
Ge 10.552634115634797 8.349552639353856 8.568700873818871
Ge 9.775477981364528 13.247183807485479 11.799667105489064
Ge 6.754585841248638 12.466709105729395 10.437351839686993
Ge 13.199570799415646 7.7241696440199465 11.08388821655995
Ge 8.949275985112864 5.770984440284299 12.07560866641446
Ge 13.935875851988161 10.256897153315077 12.24299067404533
Ge 5.89861729875235 11.766019524978848 12.829719673008533
Ge 8.557572290576728 11.158467897642247 13.007223733941345
Ge 5.917975976371567 9.100242428874141 12.619842376005971
Ge 12.04662028961444 11.980858850172872 11.588334842257433
Ge 12.48084271854238 8.413045457601141 13.656186930385198
Ge 11.615673014722901 10.895276978502066 13.979453695509704
Ge 9.802708853928172 8.85108266583206 13.446820604622703
