48
Energy = -193.46220596 eV
Ge 7.6576170346092685 8.900885968943584 5.891154484579249
Ge 9.675535032517155 11.438285444612841 5.357030063818685
Ge 10.390101079138203 8.54622052755399 5.870901967552087
Ge 5.6201641148623 8.321981053073898 7.505673791493055
Ge 6.964755254578616 11.560094263668086 5.795494271949974
Ge 11.363658313951342 13.766382917926636 6.2165405070257185
Ge 8.829191136860569 6.357426435083754 6.673545874079787
Ge 12.29321858458962 11.255583925368734 5.776415072929551
Ge 12.660502164239238 8.101414686920242 7.324835530353565
Ge 8.641447371965079 13.617666006325281 6.653509129561715
Ge 11.424463519438065 6.08295727477015 6.008427733591237
Ge 7.585861339248956 10.091093819593592 8.328031421746763
Ge 14.36828515343347 10.015492140935281 7.68993606004583
Ge 13.00902594589247 12.484554143144228 8.010972985323843
Ge 4.749826453520033 10.969921982524031 7.273756972625978
Ge 10.450558643105943 11.409227074429586 7.8802187703657465
Ge 6.520636694499545 12.46743643381119 8.4628228703582
Ge 6.894933440913951 5.930463301707413 8.89565394552203
Ge 10.261818112286832 7.819786328516381 8.623498116065143
Ge 10.518154156211194 13.828909413165272 8.840162723356679
Ge 10.110103410092908 4.90334888540257 8.396715553713769
Ge 12.395877446170653 6.014919483739451 8.842725792741675
Ge 12.32320975364605 9.957099065993912 9.554249428902128
Ge 7.978449512249269 14.482959197962 9.142121914683308
Ge 6.13327802239454 11.711111831535886 11.442599480555742
Ge 6.29879340300663 5.210849302577804 11.50052888262601
Ge 10.660159188150425 7.515355987989961 11.502318713971356
Ge 14.972157825757614 10.19356675022237 10.33304159454111
Ge 8.181885587986445 10.20235744368199 11.536149184517717
Ge 8.944393903994722 5.355637495234141 10.945505126998613
Ge 10.661970416857448 11.186295136095453 11.374839122093476
Ge 14.631888401201502 7.361007807744209 9.583372055137877
Ge 7.727181130322279 7.7546193370797525 10.563616575578715
Ge 8.350794723411424 13.234721297423999 11.674941878008521
Ge 5.102729799923025 10.025155128254568 9.63327821011037
Ge 13.012499259111408 6.12557797935635 11.471944439982988
Ge 13.174671293217566 12.338737219873254 10.74990249625163
Ge 4.902763592681193 7.338154826154423 10.175983452023287
Ge 10.28373029571965 7.854129531057691 14.198542958700651
Ge 11.019874075850922 13.858229387717898 11.468815468238695
Ge 6.152636302364409 10.18564982292518 13.627331168580943
Ge 13.541761100194593 8.597147155568427 11.730080832001574
Ge 8.13817430942206 6.472058952757581 13.179082080897086
Ge 11.850809250386327 9.78327824332503 13.299736703934709
Ge 9.615184412672283 12.232106836039335 13.803038169914739
Ge 5.94977101812238 7.843231754153738 12.53706507667477
Ge 8.658643337318146 9.84612887974112 14.02417478024835
Ge 12.22642037845033 12.330346814855286 13.50928126256408
