44
Energy = -176.9668219 eV
Ge 11.752466644149662 10.370531190311377 4.385620415436749
Ge 13.74547175682272 8.760307129613835 7.926015094942768
Ge 13.699038852353848 11.406339394769187 8.197894410849695
Ge 12.437322210164224 8.120878542687551 5.743643292054238
Ge 9.712558977345513 11.850841807287262 5.281949912171666
Ge 9.21562831269689 8.672912220295714 4.961454827247778
Ge 12.57013291679257 12.345842962291496 5.981670359139407
Ge 10.399426913761188 6.671815856504529 6.66449588160577
Ge 6.641048783783467 8.524866441434092 5.652695919563788
Ge 11.606683550165402 10.129642732119336 7.143703266368165
Ge 8.042462182500126 6.182099086308386 5.747710658761794
Ge 13.011412484812952 11.89705226356556 10.779120079347187
Ge 13.4979496053644 5.52367317965403 10.296486069629845
Ge 13.47946132605388 7.6190481690352865 11.86208879642795
Ge 12.01826029086776 7.768708054900357 9.530586328137867
Ge 11.48556533546957 13.359904115011513 9.112341820267911
Ge 9.733566175552392 11.476164420047128 8.184903373022106
Ge 7.702667034085479 10.736540952476803 6.600609488469803
Ge 11.093292473149319 5.340671139276707 8.927837573560097
Ge 10.530110361770713 13.884419684776134 6.693338989522327
Ge 11.468351736148795 5.672765804065428 11.814770778903021
Ge 8.661364968295464 8.457424163826818 7.797330389738397
Ge 7.668129287814654 5.913712867898314 8.3185637542678
Ge 11.6571282186432 9.643340238144333 11.301149347265985
Ge 5.67866767880509 11.582906989331693 8.43736099498212
Ge 5.9684886697841835 7.795910722398977 8.196748469028048
Ge 8.934732405743434 4.84998262317519 10.259670874364936
Ge 7.71793381216048 12.76347017833931 9.595294249978418
Ge 8.818834076250623 7.470231131513204 11.09995509182562
Ge 9.313908564758233 14.786435890343219 10.355285427611733
Ge 6.676274507905847 9.729543597719381 9.988043631269058
Ge 9.107573568249137 10.47188286582066 10.603422855718394
Ge 11.673096454742083 8.30903547103036 13.777738299601946
Ge 10.483150522794277 12.598456102436648 11.429421942179378
Ge 5.9919349689739185 7.453316641281968 11.14895529927422
Ge 5.371660943434774 12.22984103532516 11.041850629922962
Ge 7.598954662281942 5.5018971195574355 12.653125701157942
Ge 5.576194132050163 9.855965746856514 12.539961793858915
Ge 9.815043419221263 6.475566321433517 13.581171068809253
Ge 6.931721986259289 14.270441265772487 11.701076141940973
Ge 9.29454237247047 9.4827621433898 13.17212396909429
Ge 7.1627459285682145 7.991683948602172 13.565656852136577
Ge 9.14764411764611 14.08622467622737 13.090124160053461
Ge 7.750172888675102 11.713560657258176 12.593809425642862
