40
Energy = -160.11534619 eV
Ge 14.923794730214045 9.369691151378637 9.348706145105936
Ge 11.284750198577823 10.573381113126613 4.928106702289034
Ge 12.189660418311618 9.607739827085576 9.176494906254815
Ge 5.876048418844706 11.994526209881505 11.175143880169637
Ge 7.851423483544869 6.921927451884957 13.586924280309802
Ge 10.303023007898425 5.2399196238401196 9.89020907436504
Ge 8.305103334259423 14.182133547952196 10.84831013558776
Ge 11.008959569680234 12.300027303869907 13.288384902205
Ge 14.115793297941314 12.44602486255416 11.419981945048995
Ge 10.367347393346547 14.92240094653205 7.694237787291496
Ge 11.542045261229031 11.93132964684783 10.732541289529447
Ge 8.534255074267895 5.869457930796462 8.002754715810418
Ge 7.3373896957109555 9.636633738118002 7.7685489692936205
Ge 7.730828307830021 11.615586513018247 9.286871527307895
Ge 6.52603671873699 9.869234504860033 12.41803328112819
Ge 13.588230671665452 8.713800936202782 11.574052814115323
Ge 10.658446038727249 14.730137167390101 10.232429021301103
Ge 7.261577148761883 7.765055585266216 11.258377925958387
Ge 7.096368344314345 11.756190354720136 6.400134349212429
Ge 13.794244973270207 7.560663580289564 7.8652678413123365
Ge 11.814644142741047 8.767948700587105 6.667817017054356
Ge 9.430117283586426 8.025165139133573 7.048828755124404
Ge 8.640414246872078 11.487293297405152 11.843054716565623
Ge 12.281073042140283 6.884464128294772 9.80306705032579
Ge 9.479636434931574 7.989997235452903 9.723382126904886
Ge 7.905064252710314 14.091593738444233 8.199715717578345
Ge 8.718202421619996 9.963362545377153 5.4025949438691905
Ge 6.59075262199153 7.30589675159968 8.854554512302567
Ge 9.81529738322234 6.497627027232294 12.053365664282406
Ge 8.814595094847473 12.178643975329571 14.558488025815729
Ge 13.003056601163692 10.709139242267332 13.100909806070444
Ge 10.100500932327227 12.509420555724493 8.545615177124512
Ge 12.002841793951479 11.548712455811591 7.14205540584695
Ge 12.538851472457717 6.465245732500873 12.438219841683217
Ge 7.020066851374397 13.488202375451307 12.930833161750492
Ge 14.083877202625752 11.737986022391741 8.85030467867204
Ge 8.522508346296869 9.623991578969731 13.996191097999356
Ge 13.200068795574643 8.274306167556482 14.297350764493698
Ge 12.310677263697873 14.193624956745477 12.151493760280475
Ge 10.939158196629181 8.758246846006918 13.003376750553974
