48
Energy = -193.69967363 eV
Ge 11.664210916140485 10.417516664036722 3.279534385718729
Ge 6.330592803618274 6.7214440058970775 3.551363777815442
Ge 4.318186507519881 8.555483017973483 3.7882020720139797
Ge 11.607199417539052 7.8973057529513 3.747560191417034
Ge 4.440451185519778 6.20636054788254 5.319027607343825
Ge 7.035041497036055 9.339734313750323 3.722285903048459
Ge 7.274555000292434 4.456498669397873 5.145296631916574
Ge 12.639998903984191 9.425684328758914 5.64056299887164
Ge 11.697465886967981 5.284989257793387 4.979665429822854
Ge 11.04368091307707 11.861205723529528 5.3790018855245325
Ge 9.634823831046514 9.462417908103593 4.820895477865501
Ge 9.748131153992347 4.115186293485543 6.340067217928825
Ge 6.499530055793937 7.967095733412874 5.926420901888698
Ge 3.9973849680305973 8.504403726152013 6.471949129568944
Ge 5.508134255564042 10.464498138410255 5.5455010382147885
Ge 4.0255575588383135 3.7616671409254048 8.90898815707738
Ge 13.01892420816814 11.479645066558358 7.0783534870845894
Ge 5.861860603162262 3.7660736169011044 7.157463879672226
Ge 10.21493714142005 7.166260309005746 6.163686113306596
Ge 13.056530795325166 6.640081842569663 6.701411065917072
Ge 10.470149507347243 10.0311308759813 7.449822310624992
Ge 7.050403609729573 11.578319789154223 8.01263607552865
Ge 7.798184878047497 6.032499898023382 7.218946277354484
Ge 11.855816217494807 4.442497920248425 7.84286308979363
Ge 8.161140362899522 2.7120710741898844 7.994151178452549
Ge 3.0568861639830183 8.890389216893892 8.911556731696361
Ge 5.456231332529061 9.657681131820071 9.351560216590128
Ge 7.885396382291424 8.953692422150336 8.711099021185078
Ge 11.038559066747599 12.109837854753449 9.002666303759717
Ge 3.4903565964220196 6.342892956213923 9.611007250788195
Ge 11.348409356296939 7.359585643644707 8.524256945851315
Ge 9.524410245298915 5.013386547250249 8.954845155686037
Ge 8.822130624546409 11.002935952487496 10.077281793230734
Ge 7.170718665285033 13.027565093824192 10.436820466850484
Ge 4.84251103245005 12.199407919048188 9.249231822109794
Ge 12.608357858576879 9.726511919325795 9.173219456492571
Ge 6.432396431307388 3.295058523258406 9.891111713861203
Ge 5.979787621281747 5.908789598139822 9.235123264003521
Ge 6.998106924290282 9.197586046979941 11.55485745090286
Ge 11.214392397506145 10.595984629018844 11.213209898475013
Ge 4.253164530921081 8.376810247483363 11.614100537766578
Ge 8.69467271373916 7.284136547120293 10.601758235701698
Ge 7.807753437821135 11.443493409737012 12.507984224693063
Ge 4.542641235757834 5.604027246898848 11.878153255884307
Ge 5.222857609448163 11.35801821128274 11.707143488793117
Ge 11.197183083087701 7.953998578299755 11.052685680084853
Ge 7.325843485813421 5.2496461860444805 11.533797966543064
Ge 6.186779577810859 7.21093105499963 13.073311387047294
