48
Energy = -192.69757187 eV
Ge 6.03801113289154 11.657745647328053 6.519362615563196
Ge 9.619678837210639 11.583388615279635 5.793654412654736
Ge 4.929190803538725 9.151688955758852 5.762318042953866
Ge 7.501091696090278 9.76486544090168 5.114847116201046
Ge 12.156855103802995 12.086560569808377 6.565388813662402
Ge 10.912453318652146 9.632367948467802 7.234002129226212
Ge 13.590341564558155 9.880854072397355 6.839302368451537
Ge 12.311096322049845 8.235835669643086 5.292036796038196
Ge 9.602871595218554 7.993266892168605 5.702457067656405
Ge 6.695385613850264 7.181229598838081 6.242510019690545
Ge 4.315711172756512 10.408472094039036 8.228327023954828
Ge 11.951037632019634 6.311964414736205 7.098116283371729
Ge 8.443809945986425 12.84240326825137 7.826015473586506
Ge 10.874391581498454 14.185633485618407 7.826719008346537
Ge 10.355646245833352 11.562369879931925 8.975267193582733
Ge 12.741865610812907 12.569501633323044 9.191899664380289
Ge 9.020770381010541 6.002057106959778 7.38160052650815
Ge 7.151909847753257 9.517814637892759 7.873217640194638
Ge 4.547719430786506 7.641874129388731 7.972282075296009
Ge 14.033763541507811 9.557377382926735 9.47854366698293
Ge 11.98637613197078 7.904157896438813 9.142725790539826
Ge 9.588296576481268 6.861212411482821 9.977567659407686
Ge 14.361869372060223 7.203634434993291 7.770816576991771
Ge 13.48923770673497 4.904986347351983 8.956103507276563
Ge 11.350569676739353 14.464676226831564 10.500002478482553
Ge 7.95533627790365 10.657462138274512 11.012591939432523
Ge 14.259788955846957 7.044702812029801 10.667892794180371
Ge 10.717407509515489 4.505914571961807 8.979411008191583
Ge 6.934442110135414 7.056492600519991 9.077714347017524
Ge 5.505518853384533 9.030796117326744 10.294317590481276
Ge 12.388793337241056 10.320585187390208 11.57031316588044
Ge 10.15868176325512 9.121181929485225 11.55335082471327
Ge 6.273152678512329 11.884289980285692 9.395209840676301
Ge 9.68051605476294 4.802770331910635 11.572344205208385
Ge 8.717788742678891 14.473872474288994 9.927085452407752
Ge 12.12272248253635 5.680507637458352 11.175643349595456
Ge 12.483576066288963 7.954497183212875 13.034264443378046
Ge 7.695389522687384 8.37960590159626 12.657786017151333
Ge 9.696126652878549 12.569690908395886 11.51825476808924
Ge 7.215171596997639 13.303436460289506 12.16984688747717
Ge 11.827041413428558 12.694664302431253 12.937846744236817
Ge 6.483246743542818 10.796910501414162 13.296310787951596
Ge 10.025139101604077 6.949245250939016 13.097500801757613
Ge 11.559649891757138 10.131118554400686 14.314969133515309
Ge 9.30088019748686 14.18476612677763 13.62645349564944
Ge 8.982554359392461 10.172583554501808 14.169888902057027
Ge 7.672284585047038 12.472191141270866 14.952744385437796
Ge 10.356390842787796 12.288326154568058 15.31472574600137
