47
Energy = -170.62951061 eV
Ge 13.713117212557147 9.98745530215045 6.216624031073242
Ge 9.332543936324477 14.298479471593671 6.333761814502887
Ge 10.842657104898562 11.728955054867098 4.422215758484656
Ge 14.798600769370836 6.231901676165977 8.619282346503246
Ge 6.729564358478564 14.502077040289075 10.028389904441067
Ge 10.472891299545497 5.667957402379094 10.024328123038266
Ge 14.463324758379779 11.031843699455134 12.57470187143473
Ge 8.980540480084525 12.384647293483031 9.550071431593471
Ge 5.935112104090193 4.963163657738539 9.33952041122315
Ge 12.39197798269925 8.044140718659452 4.2212717340961365
Ge 9.672415649105565 15.311199136595116 9.842559706720698
Ge 8.026154754074147 11.151967859801566 15.200749808816772
Ge 14.930230848868925 10.567096329309004 9.580614771296537
Ge 9.44759114388607 8.470049442389715 15.519776284667186
Ge 9.581340484386573 8.924274232660874 3.6883743319523816
Ge 9.289235564334367 5.427451418456296 3.8420362078571357
Ge 4.351691396245874 7.476829748747305 7.130547418572476
Ge 6.832579508462999 10.840982759090435 12.422513655877593
Ge 11.078178738043727 10.934741265199737 14.755754850195103
Ge 3.779540883765366 8.201693084840953 10.824613818926158
Ge 8.738480772396677 7.716678195116969 12.690819871689799
Ge 8.936354564669003 7.164737357338168 6.325029703806153
Ge 6.44752846238785 12.374059109090096 3.8357495887145223
Ge 8.453119196620031 3.4089104823661076 10.052499580202072
Ge 6.820240824192729 13.84701237324427 13.035115101703102
Ge 4.50502648032174 9.273942810548093 13.610083153106629
Ge 13.042192415894283 12.77899833792591 10.51879320400234
Ge 6.2020226479095 6.7429641275038055 14.07933324928282
Ge 12.79958579395164 8.522540445608858 8.729452408212493
Ge 12.951916055442702 3.9635683327419935 9.525758018921143
Ge 6.246624731014079 13.97100908854165 6.438207960293077
Ge 14.699762157103814 5.415037970809567 11.549403380370983
Ge 7.090895242888044 4.612402491260269 5.861086537193482
Ge 11.73302558262891 12.07511962046712 7.359553850444022
Ge 11.49560710470118 5.480086705656871 5.988674300486995
Ge 9.040191067125686 13.92489035080603 3.3083452314593558
Ge 4.399505044971095 5.418820387204224 11.959054057361524
Ge 10.56305863938226 5.284006412909374 13.021079979361712
Ge 6.45347360465341 8.03306172537541 9.277619447553217
Ge 11.730885141079813 9.958521723162118 11.910540073999698
Ge 5.549122081736226 8.733529412256859 4.628162289966724
Ge 12.874675883587546 7.227357144591066 13.215784781650939
Ge 7.571078253506413 10.57021558032319 6.020400610140286
Ge 9.290640682701746 3.1176949597652457 7.140400003453912
Ge 5.446201244991058 11.5467377098407 8.178593741649742
Ge 3.438688867807203 10.25574981151482 6.228250544682707
Ge 9.809713134693112 13.414345396118748 12.35340570497819
