43
Energy = -173.3606676 eV
Ge 6.78854337731152 10.808018185087905 5.100120478160336
Ge 5.986290740087449 6.836152949284859 6.584456985886028
Ge 7.814989287018945 8.610537813557524 6.061849455573778
Ge 9.317571617626582 11.724162721630787 5.438103971129824
Ge 10.884141162131067 7.054063264171341 6.141516760084655
Ge 9.346581940734804 5.038890816004616 6.009033328506591
Ge 5.631475859864148 12.271564923607405 7.012027365726516
Ge 11.874295032604188 4.832550529244561 7.229509447750742
Ge 4.816788654674102 9.260811693504536 6.139195937585907
Ge 10.852672220507175 9.489537740151402 5.183660388225083
Ge 10.004060905765071 10.375056070680062 7.723462644845146
Ge 7.833199987993418 5.708184283289484 8.190539603632088
Ge 12.502427464408314 10.627780420431158 6.792594829084161
Ge 5.503893808461595 8.262660415280402 8.698060116108486
Ge 11.633702374551161 12.961252786029666 6.105164113640457
Ge 8.26561755850982 12.659154108966618 7.608075705411511
Ge 9.280226668846126 7.907279551220044 8.52085041269173
Ge 7.019945523853115 10.28991773384374 8.000159642981169
Ge 13.614837551128476 9.202006129035073 8.793478687052936
Ge 9.628805438160251 3.594925780408257 8.142754804241953
Ge 4.328044498788238 10.606633992531371 8.611532326694144
Ge 11.232076962895352 9.334715153709965 10.80201532328921
Ge 9.28920280112402 14.071636296451363 9.576040049516084
Ge 11.232056029454768 12.593156304715068 8.6138105936329
Ge 8.056782645205688 11.010295473976514 10.536993356143812
Ge 11.764326289476466 5.105716227849245 12.014340383581123
Ge 8.270190993580531 7.879242668119127 10.94196318578221
Ge 12.057954240291172 11.38323532729497 12.620672662759397
Ge 12.879310124200765 11.312057172537813 10.175015795448665
Ge 6.958067321721332 13.541681168651538 10.98359215685995
Ge 5.47311881590451 11.354134039084522 11.120793614075934
Ge 10.471119476769275 5.36738872867464 9.831223781836533
Ge 7.1841878526948175 5.321795326394301 10.64619016069363
Ge 11.785224922788382 7.239446364328305 8.570119589106609
Ge 13.246268684915197 7.094917388037939 10.97535753314349
Ge 7.354256593998083 12.070332414792853 13.203608388940303
Ge 5.597130151312151 7.348162471976683 11.074710543688731
Ge 11.26353813063993 7.578958364576109 12.949552739492988
Ge 9.529933494606768 12.84152949250293 11.929655761029943
Ge 9.382095776839288 10.204687472715847 12.83517011174765
Ge 9.200768657015916 5.919055461650654 12.41211859715344
Ge 13.305505854018257 9.125767226105403 12.686690900304578
Ge 6.676978423670003 9.319153464041877 12.552423682908586
