43
Energy = -174.09647595 eV
Ge 15.405225327009274 12.523453481132753 10.090466216385803
Ge 15.092794226869426 10.349948780294952 11.646763645692069
Ge 15.3157027999589 14.66592238671087 11.724849151395192
Ge 14.071668973409091 12.722125117956583 12.78960276985771
Ge 14.397557369581726 7.4188567331943425 12.346600009837168
Ge 14.703916653986772 8.377191426460515 9.771892572023974
Ge 13.338783411904645 12.232997324807194 8.41612636833853
Ge 14.241375904562931 14.756389303048824 9.208700353017958
Ge 14.082115349606418 5.800958553409829 10.197522617211877
Ge 12.54856966237941 11.83359158002897 10.869063490384413
Ge 12.755805159749587 15.215648673892941 11.705581654240266
Ge 12.619977896905604 9.311925162418923 11.23094731732349
Ge 11.720370376185445 13.734457709259866 14.067733338405208
Ge 12.016591896358914 8.065170965249651 13.425198133518
Ge 10.941120166450311 10.054201651585053 5.708678485840329
Ge 12.259949232529953 8.176233259787928 8.898633275666834
Ge 12.101031490377068 14.346837286529981 7.294972931205029
Ge 10.444982830833442 10.0857381631586 8.385519628031362
Ge 10.48589451167003 12.393926054858087 6.59343135786396
Ge 11.504009287500448 14.08084843793482 9.712064224610858
Ge 11.524475252239016 5.754497467216136 9.494600425648633
Ge 12.33110228028947 5.634694207727101 12.213876879381083
Ge 8.514960955642318 11.277592932321644 5.184788371890342
Ge 8.114738337135478 13.272305603534107 7.233901475261032
Ge 11.73442113581885 11.25658633969485 15.035404422018985
Ge 9.363387202940405 14.262067901846383 12.907310957697494
Ge 10.490535819905313 11.819857904713432 12.659834787685071
Ge 10.63473640006846 7.497015605872365 11.196044472788115
Ge 9.390040423820425 12.335142784347642 9.361020308396862
Ge 7.315586723322477 6.578285679224629 11.305551329420068
Ge 6.946281436783688 7.346180790841463 8.801588535663035
Ge 8.595708260653733 8.752166058950625 10.25479232413359
Ge 8.81051438086176 8.84681853642481 6.610303829699563
Ge 9.471125659811458 13.054265112987034 15.431106502262445
Ge 7.573664324907304 10.794501984105203 7.716046552290877
Ge 9.358786133996913 10.41524294818064 14.73239639548574
Ge 7.82740774179976 12.219969040404003 13.351110396091213
Ge 6.808568580453895 8.863621750913463 12.366429960586915
Ge 7.39315353546537 11.052307255714855 10.70925146340848
Ge 4.951604831974123 7.807449691034623 10.699856371992853
Ge 5.5353242797874005 9.704853056391412 8.801583538580989
Ge 6.856521206526825 10.13997830164838 14.628591011198159
Ge 4.9564270474364145 10.502412973304622 11.233207203652235
