48
Energy = -194.62764363 eV
Ge 6.647456590802502 8.779418820842444 3.3092198971554088
Ge 8.05770486046495 7.133153158969369 4.624747540505952
Ge 6.129189062519755 5.134705295828462 3.437129426815284
Ge 11.034438409961913 10.539373664817681 4.576175570191743
Ge 10.526979047747036 7.9427434649884985 4.555286111284952
Ge 8.42269120101712 10.535948557155692 4.102664989349221
Ge 3.882134108739962 3.8368489702977158 4.408202905011992
Ge 6.254351509763106 2.7868643961584527 4.997078072104678
Ge 4.088954454030184 6.670312391405154 4.4493283762567275
Ge 8.491613039299772 4.541639859601521 4.987157585522284
Ge 6.798989875651167 8.08975345132756 6.752530116266127
Ge 4.839858254561555 9.33139680803976 5.259239056387293
Ge 9.08080773441221 12.091193171250389 6.022621953947603
Ge 9.212270930186587 9.335844829137546 6.557143098844657
Ge 11.26437360639652 10.708027332194163 7.308801871704798
Ge 5.579812638887945 5.57256306322652 6.208186456012625
Ge 13.388012414370106 5.895706455409465 7.936745257329883
Ge 6.7265699808376205 10.872775178868205 6.411064894545127
Ge 10.995225105966249 4.317976234676866 7.5885652773172385
Ge 4.209065808997851 9.115366629906545 7.791037474375731
Ge 4.470701550729746 3.2010657512152485 7.017365068218815
Ge 10.862018922777326 12.822920100450984 9.014845850339528
Ge 7.270181230720009 3.992358877449132 7.225938811181429
Ge 2.9335419924101878 5.389376983509881 6.540041900764165
Ge 4.181009621858709 11.468653191738715 8.796634817546959
Ge 9.168016040195031 6.591380412373983 8.368551181671329
Ge 11.218752801709428 6.794851296740877 6.749336545693293
Ge 6.148314348954362 7.067247679968411 9.130082888817968
Ge 6.731822308895373 10.897208860541916 9.134453459741122
Ge 9.983628346991765 10.803275576507444 10.504055097856313
Ge 11.916916755249657 8.333811791991344 8.673388804509543
Ge 3.491894015924756 6.98548164194177 8.998910409549731
Ge 7.161443087439069 4.65929384913726 9.705002192443557
Ge 6.916882235564835 8.913936475869773 10.708799182570027
Ge 2.763828222899281 9.505189252616173 10.154626590181357
Ge 8.250752317588383 12.916946780377556 9.985697403549395
Ge 12.637871614095275 4.166829832256241 9.736223198925316
Ge 9.863874313497188 4.647949988953569 9.95699827735455
Ge 10.371074938696312 7.327227106232272 10.567449852128599
Ge 12.469836101592916 11.614946095803132 10.925574055200808
Ge 4.938376482838622 10.613129081294247 11.274217879183434
Ge 4.524203745388432 7.8973967053711265 11.388287569643898
Ge 8.428470192439194 11.938430960966773 12.460899978685422
Ge 13.153411792750063 6.841634718017974 10.461966949584596
Ge 9.049149909847971 9.029171003902686 12.187485940978698
Ge 10.54445151284568 13.404683369238517 11.677111140363216
Ge 11.475150002348208 5.334593641219338 11.909718738039523
Ge 11.032122526934625 11.197592808008425 13.05160585214389
