46
Energy = -185.1786929 eV
Ge 3.782453655018478 9.865514894146123 12.43450354404832
Ge 12.930342177089457 9.08545681057732 7.070628140654444
Ge 8.168819548177135 6.112345248627904 8.32381106426376
Ge 4.566025650837581 8.407848946030644 10.091654036057198
Ge 7.23131016659662 12.349020997579354 6.43196303618067
Ge 6.567040878522096 9.648735800491519 11.414311686381513
Ge 9.859868660697835 13.16260604394992 6.778686909018812
Ge 11.178019597264386 7.520520337723202 12.605723555350641
Ge 10.897622985599154 5.054316045407179 7.80669244207678
Ge 8.079468171189694 7.03334331091056 12.373205545361543
Ge 7.679969372873626 14.1182868892892 8.42620376996598
Ge 4.5311399320081875 11.43273615368364 10.198872291567286
Ge 12.80003844914777 11.146385700158698 12.336179702247131
Ge 8.618857967780992 12.340741945660442 10.401479531264487
Ge 11.571744224258863 5.333172568730566 5.2880014923152086
Ge 12.522777537174164 9.259767953309558 10.36063676673965
Ge 7.759975124974332 13.487150838870578 12.602204724567116
Ge 10.965675478676976 7.9712835515640865 8.437394437433678
Ge 13.103420279371944 11.909240706765557 9.536700481682699
Ge 10.076232157846832 9.20681018884418 4.64618568671748
Ge 11.845285647081194 9.645875522407897 14.280142406724835
Ge 8.020754818422438 10.92761062131826 13.156472520172683
Ge 10.363880274960788 10.025330513313753 11.79726747801194
Ge 12.803914138235616 10.337945001284275 4.577321320183232
Ge 9.74510688098348 7.113577769900855 6.191098803540529
Ge 8.767717342019136 8.324758882001401 10.016293931590843
Ge 6.828095153985835 11.431439648448528 8.844031845226823
Ge 12.428051938740742 7.7411529375261825 4.761878221534566
Ge 6.430043016161496 6.466916058691251 10.223697000708945
Ge 5.378092714656681 12.063008261813938 12.820005724218124
Ge 13.699920227599291 8.526276267503668 12.742572149369016
Ge 9.322540451004347 8.62633683680483 14.141042696779975
Ge 9.756984083865992 5.890551345446025 10.67991947942461
Ge 12.436633962083292 11.725153980305457 6.819887628257152
Ge 10.613145522803821 11.180436024818695 8.688607326116804
Ge 5.33260352844267 7.62541116336693 12.764205092769059
Ge 9.018239235774654 10.459315244350815 6.7775070977337055
Ge 10.512183360393827 11.772088066027434 4.614205106972901
Ge 12.333645140870365 6.074438084400671 9.727952897332461
Ge 14.629521306930444 9.81496538487414 8.866799487890232
Ge 6.800285363998811 8.447715956793463 8.264226874210422
Ge 6.000738597807721 13.658394016318736 10.558954078747195
Ge 10.291630247719441 13.929823568185531 9.276379708258215
Ge 13.304963873040316 6.350356450355354 7.1432476909481775
Ge 5.836338852052224 9.760209830902294 14.236107825029576
Ge 14.547985110047524 7.574730435307578 10.404239569141247
