49
Energy = -179.12413695 eV
Ge 6.298905141969861 11.780248094684099 5.343027554749527
Ge 7.4775437091967305 15.025826427400045 7.75406896412499
Ge 4.980034394373388 13.83650943089488 9.105234031919315
Ge 4.7984567900729544 11.096453491456492 7.824681919236917
Ge 9.55115644105405 12.75142068424823 4.169739193367712
Ge 6.4797342691317725 8.779346461166647 4.66236344197769
Ge 9.401444518953626 8.151585707993645 4.040810498650752
Ge 4.341657374434416 6.669062476188871 7.577554546505761
Ge 8.919000531593872 12.41080591467199 7.183506151827713
Ge 6.09556382208811 13.820356201227641 11.980614870870156
Ge 4.398482296348099 6.826060072052601 10.650295674486442
Ge 5.517383661139185 9.674786629785329 10.929355998715163
Ge 10.88245096358242 14.655070598979544 6.159517146086425
Ge 6.82986248295194 8.337033095066438 7.610142215526107
Ge 8.514391129874449 5.2687045481928525 4.619876006693456
Ge 11.986064249932232 10.899424121975203 4.360155466003854
Ge 10.856954787990045 9.159485804720683 6.57624952698462
Ge 13.374822214224235 12.907751420605935 6.252411855500072
Ge 4.8425368965506905 12.024331397790023 14.146373048565406
Ge 7.043546906138825 5.194128521940096 7.355187391837236
Ge 11.949245449651686 15.339537713789255 9.564612051327854
Ge 8.852491135585579 12.658097693383324 11.518488054375222
Ge 3.1308059608678107 9.944155043267282 12.781997918084704
Ge 9.004368493738736 15.466865666426374 10.374876269260419
Ge 12.322846315623227 12.34489306224682 9.076195503257594
Ge 12.706520383228762 14.477678349347235 12.413267320914654
Ge 10.712395466096018 5.555138888717472 6.786374983984347
Ge 5.848788054706431 9.170059016578065 13.941561187847926
Ge 9.209884458255404 6.277168394794286 9.77018366723416
Ge 13.0770456316228 7.2087445828457986 5.794502662105703
Ge 9.97906590910214 14.386266678201299 13.767779680285983
Ge 9.5962018523621 8.83075999671534 12.877159563894748
Ge 15.312472807059882 12.49320458161267 9.606220485806281
Ge 6.787686650228346 5.005124213316294 11.194117672093677
Ge 9.318836782479739 10.252592326483017 15.594038075894954
Ge 15.27251586296694 9.524862583889233 8.809681906983068
Ge 12.633339112057849 11.154642923374741 12.636566503544843
Ge 12.39252641433639 3.509277643122001 8.32495054845269
Ge 12.633233188180428 8.399192147529234 10.135562141338013
Ge 10.073934180685297 3.4030188895798523 10.286355933892498
Ge 8.300998806067648 6.1296238201327595 13.638296453980157
Ge 15.611798118251409 11.780551140757986 12.594149233422499
Ge 11.568553619256106 12.262578693686697 15.307049557612594
Ge 11.024698207342107 5.480365529242167 12.340081900652226
Ge 11.122309306626244 7.78230912582526 15.313471994784482
Ge 13.987383765031511 6.15573772408129 8.550574327643425
Ge 16.654561703216366 9.088734226785766 11.520094678011693
Ge 13.802472469264623 9.054234714587402 14.660789925373093
Ge 14.385625358594837 7.1882627221627615 12.361709361370266
