44
Energy = -177.04187193 eV
Ge 7.565315229680856 7.72917193839016 5.217872320190363
Ge 6.3129457508311875 5.490264009349859 6.456156963301634
Ge 8.93200267722818 5.658001964049946 6.334515270296257
Ge 9.935457802339316 8.387828557858457 6.654049762385718
Ge 5.280620372311462 8.269493170208877 6.66251030924642
Ge 10.150474999501496 12.511516383496714 5.3826907318517465
Ge 11.427148334774493 12.358290628101717 7.532518878084646
Ge 6.391915369225287 10.787165735672241 6.207011865352249
Ge 12.801169468694917 8.94608376605394 6.425221885558775
Ge 7.6433691730308935 7.817628844563564 7.9650068876398565
Ge 10.47732348136729 6.366155466681495 8.433825395839856
Ge 10.36099157125335 14.39001345049314 8.785136900787167
Ge 8.522632231660436 13.813898925011646 7.018270478336727
Ge 5.481300928183436 6.6540484580323165 8.859581566990888
Ge 13.79417539098837 11.185848072789131 7.6657976779697234
Ge 7.783735478448794 5.195758537229591 8.761496322723458
Ge 6.093279967322686 12.966620870530218 7.812787556768242
Ge 9.821178684072375 8.760451828532828 9.91604685349952
Ge 5.404754399376951 10.393316314425993 8.675684052447684
Ge 11.026704842012556 11.855698399528837 10.293935548599483
Ge 15.136154995076145 8.85516167223107 7.9056664419969405
Ge 8.86993965875468 10.757305391102264 6.802026075462325
Ge 14.583131144135972 10.425550536922694 10.108528124854898
Ge 12.43499650292927 9.255032797224558 9.066646320297153
Ge 7.98502620081907 7.254909630865303 12.047386144646342
Ge 14.416614482442293 7.742662511154306 10.292446552827696
Ge 12.533686149857349 13.088648815615167 12.179454632412103
Ge 8.652328121260359 12.0771018943569 9.033203580240016
Ge 13.2337058730332 6.85986500392454 8.011298533773648
Ge 7.23776124898067 9.491146871295271 10.276761792955266
Ge 10.358648240176429 14.328300871047277 11.403853231971894
Ge 5.590474255988998 7.815834817321086 11.302969137609516
Ge 6.448842215612935 12.19202482629253 10.41762377729645
Ge 10.262722300402766 9.893326399079307 12.301252323199288
Ge 12.891283278589517 10.335986234981613 12.882607468126222
Ge 10.968471686749835 12.014949289107157 14.01173879461053
Ge 10.077028901971971 6.267379490891376 11.076476133424437
Ge 8.929007752672993 12.29368636593794 12.175634164038378
Ge 12.078725998850961 7.800950066281441 11.96528905812997
Ge 8.554556880745022 8.914461986572247 13.948896396301734
Ge 6.870060121308956 10.67593911487046 12.657298178889222
Ge 9.841642569836367 10.40582237453224 15.805357750057716
Ge 12.419726772565742 10.238362806823393 15.485465619076441
Ge 11.106028240763795 8.165394656398357 14.469062285760504
