49
Energy = -197.91052417 eV
Ge 11.723254306674109 6.367626465099276 4.963873976097736
Ge 10.316778709664984 8.870495757139915 3.969397874824551
Ge 9.031585577874685 6.7489276744346 4.397807944205406
Ge 6.641561192225787 9.011110747770507 5.56834658301116
Ge 6.703027288324851 6.404889642645764 5.51614165328585
Ge 8.11919855110417 10.228987546702205 3.842046168215229
Ge 12.482175384903059 10.905456311058252 6.5034836035616035
Ge 11.640696105244949 4.672214305162513 7.242530666967789
Ge 10.847987763081807 13.008223565673006 5.982777607821321
Ge 6.750419123731125 3.3570617608729814 8.50729081775445
Ge 4.248627048699044 8.286379016336316 6.903881268606752
Ge 5.05352738168205 11.122303008220406 6.274254993507838
Ge 10.848940343333656 8.560872940426645 6.591627714755042
Ge 8.68149640974227 11.629328176415884 5.83540222258368
Ge 8.402919805474507 7.720748820284968 7.199896157599684
Ge 12.942970054510528 7.051618624992754 7.200252542893811
Ge 4.864759549503981 4.591189524086334 7.004368864734243
Ge 6.838770025723655 12.986821113147965 7.037493454487575
Ge 12.623840095698322 13.565153963634849 7.856026685366325
Ge 9.939545760849986 4.387478301901141 5.096916274771503
Ge 3.1891619880678848 10.546461861077988 8.048639314872334
Ge 9.958765676651758 14.079550967952843 8.314050717465816
Ge 8.761449564185265 5.128594241967219 7.276324209818755
Ge 13.276587550241777 11.271928106197617 9.076412581140163
Ge 3.395259129958911 6.144594436114489 8.69335689033886
Ge 5.178647017359342 11.81871935569908 9.03154365356825
Ge 5.995658639900713 5.813393376265635 9.109991277325943
Ge 7.635712069512925 10.529265542065177 8.076574423863393
Ge 11.63985505025352 10.308393732880525 10.881996401900269
Ge 4.134695903904135 3.6838234833784402 9.521136650360098
Ge 7.484324410733282 13.034624625395924 9.618060356389151
Ge 10.082311618922132 4.2583854985792575 9.457086750160009
Ge 11.569961879644175 13.147676965866037 10.318155255452053
Ge 5.389555596066193 9.218802503171492 8.962500444143947
Ge 8.552539822458453 5.565798633317173 11.489254013199435
Ge 10.18980028334395 8.677431404703327 9.556903525709547
Ge 7.894831931513132 7.52224444756035 9.871619867964547
Ge 11.556489850618608 6.513138571873943 9.379720114054805
Ge 10.565887345153318 11.449980380372562 8.282182518414771
Ge 6.31516401903537 3.9792183884192527 11.100671584651566
Ge 9.886086209841192 11.775267949463263 12.377710722155916
Ge 4.36186442592431 5.880123480529168 11.173404081136121
Ge 8.169189223927988 10.633005188841496 10.788399872561529
Ge 11.196291849123956 5.328881238943245 11.710978912119634
Ge 11.42723870779169 9.745785561736524 13.405448610251797
Ge 10.186969184755622 7.787581422021254 12.072565094881776
Ge 6.324525442658048 8.9778677882449 11.441100686858334
Ge 7.542355097263873 7.374613118893013 13.189456440740171
Ge 8.730247754805005 9.62146818412353 13.574445675112578
