41
Energy = -165.23937532 eV
Ge 11.028404276617552 14.965929791327877 7.584618815475656
Ge 11.425724231414137 12.445405526018629 7.712696929749125
Ge 9.496814250194959 13.148885218746615 5.770720871544897
Ge 11.757068909485204 14.577253251173747 10.09606468183934
Ge 13.499959889332613 10.884918891152799 7.680172221445441
Ge 13.965940473691006 10.775979193743158 10.243051972190267
Ge 15.24056756735038 9.371130853367026 12.133593250142292
Ge 13.140806503650767 12.908590095297843 11.483362872036988
Ge 8.917122404921267 13.754523118420003 8.536164550509188
Ge 10.949440375143302 10.813824622422851 5.544291043932455
Ge 10.459133108166606 14.898460029290877 12.270740245850796
Ge 12.059150610407938 8.654290070818108 7.1400460405238775
Ge 13.071323080620253 10.044201069292365 13.40013684494962
Ge 14.01724941685644 7.937365423919221 10.166859203698467
Ge 9.650712748101983 11.059608949698953 9.196566846452304
Ge 11.82522437066563 9.483210652690351 9.586615034805067
Ge 8.506196032954405 13.749360380824195 11.147992890594765
Ge 11.681143968116626 12.995534658743427 13.768820366879764
Ge 8.247633632761172 10.894036258092264 5.180021130713119
Ge 13.72406715799419 7.3016065651201005 12.843447728628476
Ge 11.482153580866719 10.390944595265958 15.518918963172426
Ge 9.31898878510388 9.429592961904682 7.175541780902032
Ge 10.8930397318756 9.268088025647494 12.321258712449433
Ge 10.626359927028213 12.277739264399166 11.37071462632228
Ge 11.659730153460496 7.05144818792948 10.922506891950192
Ge 7.164304259619546 12.506066838952965 7.150504753916435
Ge 8.706835512558007 8.489527477514894 10.679973778022251
Ge 6.533001994199324 9.833339653108743 7.193305457138827
Ge 10.07206618857937 6.887021403076043 6.766336234359281
Ge 11.98856578299186 7.812361541330742 14.929597618147767
Ge 7.139216773932435 10.99735077746796 9.892881777549125
Ge 9.41462650558251 8.768347870910333 14.591785010365559
Ge 5.97706292968031 8.637082827831781 9.71147848977512
Ge 7.197273406371346 11.838010368590886 12.566595360759827
Ge 10.390187469697414 6.581705360991484 13.15241055265889
Ge 9.513488413059353 11.253693927639622 13.658901571603106
Ge 7.507315132056467 7.31110015321828 7.619479873260493
Ge 7.766029749471919 6.95460454045105 12.760507131823381
Ge 6.687653650949731 9.295279213687866 12.227245056698882
Ge 9.725505979739616 6.337730244240246 9.249875755777985
Ge 7.336542582484457 6.140771613986984 10.204100212980457
