48
Energy = -193.16659194 eV
Ge 7.770083783788194 8.053964175135402 6.376062013415807
Ge 9.906433167965417 7.941454456770517 4.911129237928948
Ge 9.155330256831455 11.182160515869537 4.771454983218704
Ge 11.73286717526296 11.786960526026359 4.878870893862455
Ge 11.264809055220535 5.569824565554435 5.236410694256938
Ge 9.389409855014751 13.770030478266849 4.729668994052177
Ge 8.256228783902591 7.440062248716761 8.855475437040404
Ge 13.58382635349706 7.56823066447207 7.209309292976378
Ge 6.900500108943931 10.49141410710621 6.525022461574961
Ge 7.830580173244242 12.963368577160066 6.694483422347368
Ge 8.918400840685061 5.485723688638903 6.553295997991677
Ge 10.751515671205263 9.804514083406968 6.500408484708336
Ge 13.326573526112947 4.951526469179258 6.876535058157235
Ge 13.278066854989081 10.223467037758198 6.92892484822262
Ge 10.900858425631524 3.854072371831153 7.3599615147150805
Ge 10.739486985635578 13.083370842327072 6.823736277840257
Ge 8.987053823917991 10.770789233282297 8.160398554640075
Ge 9.304740707058746 13.294994865943602 8.930805207169312
Ge 5.602003899536889 7.202882826708277 7.544973351008754
Ge 3.8947485752306776 11.990347180276144 9.048634257907946
Ge 6.189289199251517 6.217623893481553 9.893887923530253
Ge 11.173746973348132 6.716406659643551 7.772381658501475
Ge 14.051927013319995 6.723310973653793 9.743339141882418
Ge 12.63570673346878 8.994816075699504 9.538306214331177
Ge 6.333342371532221 10.317224638486941 9.421909336057476
Ge 10.753573814115263 11.516836683647755 10.421979103683979
Ge 5.907460653789985 12.593850985861161 10.464274440187816
Ge 4.404492877782875 8.283279198902973 10.049131874641516
Ge 3.657128834812039 11.14985959538718 11.504456535082408
Ge 12.426944837810204 4.594431858307977 9.599984310121199
Ge 4.4945916060917686 9.671490823468952 7.642687095559206
Ge 13.015046519615842 11.642956437472401 9.150296696969974
Ge 9.738096058318185 5.217582444891938 9.466242474620543
Ge 6.865975908879612 8.514948211196243 11.294431475950372
Ge 10.095131271766132 8.933056089916194 10.12628488517661
Ge 8.559802360753228 10.620085324702185 12.08741266606
Ge 13.531839796233282 10.778023018152041 11.592976094581852
Ge 9.783500036564105 7.322993044815249 12.123081468107255
Ge 7.951861665912084 13.149783502026382 12.011906818274047
Ge 14.285431211703134 8.20429985281272 11.975395944268913
Ge 4.435020081874569 8.914670446935412 12.602000062061142
Ge 5.525548168155 11.833167633087744 13.0557810230027
Ge 11.229947428612597 11.478234574656781 13.007444085359532
Ge 12.225585256440965 6.207155046980206 11.822514382359712
Ge 6.676672456227299 9.427179894398861 14.016977480811681
Ge 9.6068706622024 9.34072934466867 14.116788451366773
Ge 11.87921602249162 8.845438669159488 12.745642100675255
Ge 7.656653491137654 11.945327499042065 14.420846609626803
