48
Energy = -174.74369509 eV
Ge 6.032610372200716 8.804574319085734 2.3877361965390267
Ge 3.018982391109 9.505551468017186 5.2548849854773465
Ge 3.9668904127409426 5.508210063714281 4.225862591528301
Ge 8.941737717447667 12.035026046075476 2.2917127231392724
Ge 8.558370327012673 5.385991271908137 3.0000727348356384
Ge 5.9343142764479095 11.814050525164399 2.908120722821251
Ge 9.098154047558019 8.94537640464685 2.1515603489657473
Ge 10.939228060958882 3.9371877489906564 4.323412823630119
Ge 11.537762954647697 10.69573573312717 4.90055420029456
Ge 6.300834946844207 3.527688428824401 3.9081943477089194
Ge 5.555286964638178 7.852092969917911 5.24846177671382
Ge 12.171412910583966 7.773930897704685 4.191148332463326
Ge 3.0852534139902215 5.000575658472516 7.121153307269156
Ge 7.87786562493274 12.866983088872827 5.011056876197409
Ge 6.588870707627751 1.7400646173433763 8.703173248092623
Ge 1.4262905624340045 7.612029834818342 7.063308066107065
Ge 7.122323043899615 4.027428481446541 6.791137204617138
Ge 8.801211130932977 11.000778309103065 7.235884226514471
Ge 10.918932801959164 13.181607162807024 7.877815871363581
Ge 10.997894006738662 5.286912625519471 7.084164725399853
Ge 9.366370671615364 1.9504579814294754 6.0387148732609734
Ge 9.20410628373945 7.755261404896164 4.940588575333486
Ge 13.61770436041327 6.954240213185224 6.8299873304671745
Ge 13.9818483752126 10.237224796658131 6.543042357476592
Ge 11.497313712556203 2.473002611602514 8.164746338374067
Ge 5.083054919930877 11.00564488334216 7.008695186475791
Ge 9.3115332097566 6.869658139417042 10.950638500094769
Ge 11.802886996470631 8.78331810061833 8.655736842190029
Ge 7.250285041656427 13.395033087646647 8.689384188634751
Ge 5.136304436639697 6.2027722357821915 9.038149623966548
Ge 8.93236915507989 3.5272927805279735 9.571198715243638
Ge 9.66018248338804 13.638389783589771 10.643287555999331
Ge 13.41793452403135 7.627060103258196 11.001255609731635
Ge 13.138440042681843 11.540281780325817 9.161872636263427
Ge 11.791208115546764 5.094968172838071 11.433833231797708
Ge 5.345362538868195 3.672377103217365 10.760778007418384
Ge 10.502264046944713 10.765476774913509 11.456953648856192
Ge 2.6101369398995296 6.164658365805255 10.76904348917477
Ge 7.86394897572801 4.475724663117128 12.349927618257553
Ge 4.761184321623006 9.71510315680487 9.843136606865826
Ge 1.8180215510951805 8.930383415594227 9.774602295109197
Ge 4.322555395957386 12.709051177753421 9.427000312324063
Ge 11.290212513502446 7.5788619803249215 13.198979327832031
Ge 7.452250709060294 10.960448855344792 11.706047973644067
Ge 4.461427807269431 6.529993816498805 13.161052716989042
Ge 9.162452166356564 11.06183391353916 14.21901518230946
Ge 7.605337143759159 8.453390013345466 13.603701079983281
Ge 4.723888217167693 9.411106363720554 13.364026196903739
