40
Energy = -160.55188715 eV
Ge 11.591129307231391 7.917974694620533 5.032711133765254
Ge 12.373972778508431 10.52724433315586 5.688182744667978
Ge 9.75179556717858 9.86035358014958 5.356536549848095
Ge 13.8214872006685 8.562131964051671 6.986097477953607
Ge 9.935104289017598 12.251384567380269 6.603784423687747
Ge 12.541382276473396 13.068644290171006 6.834016224472604
Ge 13.851256427909455 11.140714996144986 8.100553365424437
Ge 12.086822266787104 6.387299274157477 7.127743896910301
Ge 9.412369803184212 7.296002426330202 6.881726417723549
Ge 11.199805303392926 9.04390812507032 7.755742498295598
Ge 7.330562382930698 9.640806953672662 6.348047348431354
Ge 8.58613789444924 14.21602335236297 8.463345830792036
Ge 13.681293588571089 8.308126566025425 9.672609933876833
Ge 7.204589404672536 12.121282571710408 7.31437213430001
Ge 11.233160489450782 11.61734274806087 8.921191202258322
Ge 12.236606404227357 13.23148495581157 10.948866932394326
Ge 11.234290445593615 14.22271100239316 8.825113128046315
Ge 7.717468869640035 10.088771467816347 8.997410597796355
Ge 10.450433265324913 5.817306347740655 9.161611451108708
Ge 6.113563376374311 8.035515747839744 8.183553219919244
Ge 8.524754023918815 4.921699376839431 10.906071910560785
Ge 13.34185145809844 10.743876699065911 10.693391713958803
Ge 12.289934258210982 6.435809741990413 10.890553594312099
Ge 9.37568039659171 10.762971367280352 10.934448668747123
Ge 6.204824005632243 5.93173641476135 10.005453301872324
Ge 8.493336310093945 7.503763469300941 9.72094971419711
Ge 5.198070910771511 9.862612612886528 9.909384341851036
Ge 6.0278190895438915 12.335460471027204 9.597205619265075
Ge 8.331292609834074 13.162554271062044 10.796561775681162
Ge 11.43517686781974 7.638451008347758 13.022907100786574
Ge 10.337413183500463 12.698363868812146 12.74265392704772
Ge 11.8762305214668 10.314880570330248 13.03831542446233
Ge 11.175622595074808 8.837932998465986 10.631684121234153
Ge 8.990225113312814 7.2101073564809415 12.281025879841382
Ge 6.6757871279941625 5.837017050641749 12.693737953012667
Ge 7.594175451939803 12.460092085564833 13.207207668539047
Ge 6.890046947722546 10.145140388774095 12.015971029675102
Ge 5.161515916911935 7.853395728148469 11.835072721839577
Ge 9.249814652848013 10.33276930878422 13.62531742428565
Ge 7.100684025267712 8.154169191706833 13.860979326620413
