54
Energy = -217.81512466 eV
Ge 11.432306857703553 14.812699859111076 7.055787614025026
Ge 14.205445962926577 9.987829961734985 11.66774952777604
Ge 9.207629504574845 13.026482999429856 6.337317473714498
Ge 12.895073014136925 14.274927142094535 12.416720698497224
Ge 9.724714781692471 6.206534295652663 11.148751300587227
Ge 15.436872942785715 13.896827010223703 14.13991963108438
Ge 10.171592824569437 6.824464767038453 8.513479252834445
Ge 6.895703903453268 12.194424214728054 10.612532301782462
Ge 12.422383200376897 17.560487971008538 12.343348893014284
Ge 8.488987604738991 8.247608533771237 9.919095033231017
Ge 9.325608439126817 9.466985360805257 12.045827042107629
Ge 9.24126935406708 13.173526428710046 14.60539261678232
Ge 12.81896456102668 12.083721625448398 16.656278041850598
Ge 13.887705294390399 13.686699984258683 6.316437833200021
Ge 14.707933416323158 16.403472272857282 13.240551714502432
Ge 8.76324246640651 15.321292146465135 7.6681632595286535
Ge 14.997284151608904 11.26856291047174 15.458686924037758
Ge 8.953078666271491 12.108501019221249 12.228202662085529
Ge 11.73335321922268 9.97887774328115 10.905283307112283
Ge 13.941890873331715 11.998616884075027 13.171066494840018
Ge 13.867486715067244 8.832568373472883 15.524296997835672
Ge 10.034919673435274 11.488324641060863 16.571158243931457
Ge 14.21651549823284 9.11879936678752 7.206385173325963
Ge 11.4614118466178 7.700727373094167 12.573949386917448
Ge 11.474940946126111 11.942576742199115 7.242675214046276
Ge 11.366278626798424 11.96665801292892 18.765858005159274
Ge 13.954445075779942 15.857636629585505 10.615858171457635
Ge 11.59093316853628 11.944440565199331 14.330184385441743
Ge 12.237057077116189 6.487984669795632 10.315434651810566
Ge 9.380312954642054 7.856595228865318 14.114793506470743
Ge 8.810623493162762 12.59485477614311 8.859813382304415
Ge 13.965149596730749 11.610841853780295 8.034593756212878
Ge 14.71841554982623 6.295060905751646 11.001358357994723
Ge 11.61494910518444 16.884858118671694 9.995675469526581
Ge 12.190078429514445 8.534789309212757 8.638244386410824
Ge 7.029904949392199 14.631396153799782 9.669293467027899
Ge 14.660517134228277 13.92562552231271 16.675641032543847
Ge 12.462549742043661 9.772694898108405 18.282835799030746
Ge 12.822333095525911 13.798641914117692 9.152149096026044
Ge 9.960633137368662 16.77859917659938 12.455794515780578
Ge 13.982415484263283 7.817459853484561 13.010072855775432
Ge 11.636255892419074 13.31816367506292 4.8157016829422625
Ge 11.625123648134904 7.545055711846723 16.87309335718376
Ge 13.254245198206133 15.415853064914074 15.129217782632544
Ge 11.384672760104465 9.474713916749213 14.923315757621406
Ge 9.77048784144429 15.01090105121457 10.073517401764112
Ge 10.104558821206744 9.993273216870284 8.70927409997572
Ge 10.858868118543723 12.613513516286146 10.586473195975811
Ge 14.815889223300914 8.518671147571084 9.681003086701274
Ge 9.47742624005729 8.95312785733841 16.675843101526326
Ge 13.242907541295743 11.274105059997291 5.346482899657531
Ge 14.003873518012467 7.886063359558509 17.957568174597768
Ge 10.992140948005238 15.026860598898013 13.992711517343913
Ge 7.930035399807387 14.829736935298296 12.049889577278202
