53
Energy = -213.95648348 eV
Ge 7.7863401695343715 11.72870857694014 3.2826610190503414
Ge 8.381312095514204 9.135077788501222 3.107477147359742
Ge 8.73009253256205 5.6985431004932865 5.485234837264235
Ge 10.234993466001965 10.750090326624017 4.3359217561953125
Ge 6.053522045203832 10.128200440815567 4.534065309522742
Ge 10.386869752467984 7.564072466028391 4.191414647698718
Ge 5.118744922828569 6.747228536692257 6.315277621171534
Ge 12.878009361724184 7.172800352740701 5.078546657724958
Ge 3.991020219610899 7.908970852100028 8.483496220376422
Ge 9.344758937776753 13.08445461145665 5.178438956377195
Ge 7.014538808625031 12.159433200853908 5.8815071166716635
Ge 7.516520875329718 7.978251568340714 5.38726907643135
Ge 9.311049886606229 7.384488494091573 7.92693604480063
Ge 10.012203861364187 4.757631693246681 7.537965286302298
Ge 6.508477475688249 4.497552764001928 6.949319383422686
Ge 12.661498013818303 10.863144433721006 6.194976080391822
Ge 11.043312696944755 8.74146705813689 6.465433967800496
Ge 6.44060691099659 6.692880535239499 8.602565798012732
Ge 12.165893528413656 6.0484593787211836 7.269632902728056
Ge 4.005684017563797 4.921517768492114 8.007147538852239
Ge 11.739932034672341 12.532343823611296 7.995125869640838
Ge 8.97706785426346 13.537669061423102 8.729581054485328
Ge 4.788578842518924 12.418636530940324 7.245648462252102
Ge 9.645284159867565 11.100149894581351 6.995332026436894
Ge 7.337164629492522 9.867651817654629 7.101916987378545
Ge 13.715492942933135 8.632667467479635 7.158720394818336
Ge 11.45902215041544 10.588080805080926 9.79205308816433
Ge 13.918200868359632 10.996988150124299 8.670419680612587
Ge 6.468477683112207 13.001072154232274 9.060389930574965
Ge 11.334392012804763 7.902908721856701 9.715802268517534
Ge 8.526169361718106 11.097182961772987 10.056725631696548
Ge 13.674917950804634 9.101566242856206 10.584342329746466
Ge 9.71414267818367 13.373309754665298 11.215146063674705
Ge 9.815534137031708 5.139226602711199 10.084060910199268
Ge 5.390638936448856 10.33511472720428 8.711760886966312
Ge 13.707254899516215 6.702445260052554 9.264730163159145
Ge 7.1312749463070455 13.981642210432858 11.427279478216942
Ge 6.252616889668151 4.241581183822803 9.57492235749859
Ge 8.147678708525644 7.011033728117491 10.795282845631535
Ge 4.372606064969603 6.03355742326122 10.310231549031508
Ge 6.181018582175982 8.537342353147789 11.665714344040547
Ge 9.602361388263379 8.829424063491498 11.928673066202707
Ge 10.780301710757586 11.253010980539145 12.358447906717528
Ge 12.087338200486514 5.692562838098024 11.160604380795002
Ge 5.977640953592541 11.343588312565414 11.243958987580838
Ge 12.07466991017304 7.89214667398742 12.584140940260092
Ge 8.103037430519946 11.765058317647973 12.748394464603303
Ge 7.97702242907119 4.126209898193683 11.69800473702019
Ge 6.811286611788986 6.110583978907392 12.91617938518324
Ge 4.364343421090899 6.915694441044489 12.672635294032412
Ge 9.620430301456338 6.302197640172647 13.277170968425768
Ge 7.772286787168676 8.529529857578192 13.93182585480184
Ge 10.356073757248607 8.554556989488669 14.519199137462088
