51
Energy = -206.21720947 eV
Ge 7.399643701048961 9.556652793629175 5.166459797708795
Ge 9.77689829854433 9.884691642003368 3.973755468505727
Ge 8.381519705745891 5.593220915881441 4.300418687051743
Ge 5.9256272573549085 11.491556035322615 4.225079655760915
Ge 13.65270078189795 9.792312031211507 6.27620435820314
Ge 10.264153706538194 7.443105510501429 4.200974026975907
Ge 8.472745376922353 12.097026143596741 4.416486525176836
Ge 10.499933821517326 3.9912695243438523 7.369771524705834
Ge 6.458622001880391 7.16819791078933 4.9510414274417895
Ge 12.074157820395286 12.018956712868295 6.515438206479728
Ge 5.99907056005605 9.088947219066766 7.979962924427285
Ge 8.668660787827719 9.408975964149564 7.555347766460497
Ge 8.168072876916826 3.740289082153415 6.149720665872488
Ge 6.54713659335208 13.043861863797181 6.33983143822882
Ge 10.975957474210299 9.588850754895097 6.206739519972022
Ge 11.481335637046147 6.347519815278528 6.938206304207148
Ge 5.678812949347457 12.318836942084536 8.658476469551273
Ge 5.512692892603333 6.624792999661233 7.201520514528465
Ge 12.291200541812845 11.696530745709659 8.997646669106459
Ge 8.264439745598695 11.860160303513211 8.203996126560607
Ge 3.3470263003234595 7.9770791795738205 7.838709284876793
Ge 8.766212591020377 6.629181072910188 6.702974577538581
Ge 4.71600657879521 10.884327563714514 6.553261790906988
Ge 8.219774184004867 5.003009969301934 8.60021465149204
Ge 9.71266631835197 13.133420071848215 6.404323197310107
Ge 12.722093421720889 7.536921440646016 5.076067289396331
Ge 8.737175100530301 5.8630777941379755 10.943411747962255
Ge 4.828720526778973 4.5902370926489455 10.48483778295647
Ge 12.720917022772403 5.468089790725435 9.326863755209732
Ge 5.912173873844621 4.182322050909929 7.953888393973505
Ge 11.900138006328387 13.37314030478397 10.890755023151593
Ge 10.505201024466903 10.615620822343443 10.514166902587771
Ge 13.60244359558088 9.50239558746203 8.899408570243592
Ge 5.757113009678726 7.055209138565037 10.53479894389495
Ge 3.1022850398858304 6.731915146203967 10.209529183337557
Ge 6.6320674238667445 5.278288477621743 12.410636004184802
Ge 9.348548270512513 12.932966439181218 10.300692841829834
Ge 9.131000809637502 8.202804663532559 9.899546957654074
Ge 3.8787946116327157 10.199106432508595 9.244429126561855
Ge 11.545068598667418 7.913285244897442 9.000605145551745
Ge 13.588969624470993 7.822377768873164 10.838307830121774
Ge 11.771281120869695 11.48338973672121 12.72379009087767
Ge 10.51863145853783 3.95910275947102 9.982818351420391
Ge 3.9217579711087938 6.237457276392057 12.633670071349073
Ge 9.160809353282637 11.73771345312912 12.579955675917045
Ge 11.464739086973681 8.945577514366706 12.371466535739593
Ge 3.8891606920725827 8.795869717723013 11.915913660688842
Ge 6.208916100191262 7.850764382509615 13.235813347093965
Ge 6.173686299643558 9.658831945464451 10.637489743283759
Ge 8.293559743403152 9.289944567021875 12.13320949433806
Ge 11.309974543716386 6.271112517641942 11.411660784912455
