50
Energy = -202.74707127 eV
Ge 7.969294707731789 8.576231788439506 4.524509934155113
Ge 9.39895645373839 6.769189663688463 6.085428414800897
Ge 10.802320804269018 8.728971736112312 4.750695378649175
Ge 9.098340516810529 10.16365854712091 6.3290361440693745
Ge 11.72069541781084 10.210305565395187 6.762200625138693
Ge 4.00900301918384 7.9232412368343175 6.601853230764207
Ge 6.357255729264907 6.841303202328602 5.875924562277238
Ge 9.317565926657286 12.788304717991133 6.441926875759637
Ge 8.855838119653837 9.797099010553097 8.913944928968002
Ge 5.933484683513874 9.851612628156925 5.840915861082777
Ge 13.892396681338987 8.750231455545814 6.273540062627926
Ge 12.025890668029692 6.851970447664707 6.333330306178298
Ge 12.046209138630557 12.830879212958289 7.16670809838176
Ge 7.082851272542088 13.49817647153845 7.807556656448732
Ge 3.740373513316745 7.327617681343824 9.13600989929948
Ge 12.15418788417246 9.102619967206858 9.071761170326365
Ge 14.563143006347934 10.28908595367125 8.46115116231708
Ge 6.237741654240092 8.1085509698527 8.302918733587177
Ge 9.503891812197917 7.29652578207008 8.902933076798686
Ge 8.360602561926203 15.191969766609619 6.103473796798244
Ge 3.837341019501576 10.059951923732488 8.296324310155212
Ge 7.461831761913672 5.744663068308167 7.993659436771942
Ge 9.414936382101876 13.28686367325746 9.029022679329785
Ge 11.960544815929993 6.384543807895364 9.02461313639931
Ge 14.400181275038017 7.611689745177334 8.778127561908297
Ge 13.075363817265035 9.318308327331 11.497186426967124
Ge 5.797155750520998 6.0648000713117005 10.20421230605233
Ge 6.524059177994665 10.850421810452005 8.228136168732767
Ge 2.9439917313508324 9.404102308696052 10.686083291641593
Ge 12.735096674944101 11.882533505408713 9.520747011616095
Ge 15.688320636254677 9.385808907256923 10.806058805975484
Ge 10.647162000610702 15.14251285418502 7.531029663356736
Ge 10.375077716112049 11.2837581577996 10.295954063581698
Ge 5.175857025864854 10.933967086217605 10.621676332156305
Ge 8.296408450457376 15.67295194669402 8.750320173139015
Ge 14.392826583048741 11.6419933140654 11.607228042222681
Ge 5.119036814580224 8.249942567175854 11.645979307066607
Ge 10.312539846039217 10.674896211992133 12.844846168061347
Ge 8.11371120419121 7.206255493376799 11.156380956446604
Ge 7.377542133766097 9.725292821315557 11.35589309255156
Ge 10.341239580543544 8.087802822377485 12.251036336048218
Ge 13.10480796634236 8.250339489976204 13.973256712794194
Ge 14.734726901109443 7.248502440633361 12.09168889164887
Ge 8.484802724496786 6.5297324648882 13.677738400488975
Ge 7.813321322441258 10.993794814350917 13.630429442785527
Ge 12.766914628056782 10.859851295285535 13.676595511084663
Ge 12.277417861369024 6.329094778025837 11.817169554245334
Ge 6.770658269177556 8.601350420317555 13.951714980053966
Ge 9.352322310553223 8.8727341226199 14.7242475327616
Ge 11.201906332587948 6.371140230334684 14.213971071070437
