51
Energy = -205.97624444 eV
Ge 14.623295752210295 10.166140359323725 7.315379870279979
Ge 15.417385694457504 11.896276035807618 9.252557030087017
Ge 13.661700058003193 13.964395525714805 9.132482897825524
Ge 14.6494245253167 7.907949611034461 11.483743601346397
Ge 13.875557133115185 8.434603271802686 9.051569375464997
Ge 12.598607229724784 6.257115636355372 8.081763360559174
Ge 12.977791958932098 12.537647512877983 6.646107435219426
Ge 12.959700441781006 14.179558359667835 11.72393906669544
Ge 13.443040793430413 10.550504292089698 4.957692226005478
Ge 12.923136193393033 11.146426489173667 9.14394852482577
Ge 14.582965356621393 10.452611224042474 11.279849825680428
Ge 12.807154968149346 5.835664811041276 10.83714460334229
Ge 12.038825267430528 8.030226618464164 12.300999302747734
Ge 10.98514981502925 13.972205691385348 9.209480692464462
Ge 9.907793220834554 6.668828505377309 6.466478265278216
Ge 10.498354770537604 13.314011798632647 6.63046279021987
Ge 10.920424157233114 10.475518633828445 13.406844626190313
Ge 11.365079177093989 7.992105147878733 9.770364807462492
Ge 11.656488373086257 8.964917938091503 6.335870735353327
Ge 13.022915451028464 11.847421807414765 12.772477539881208
Ge 10.783567105909903 11.14614026742202 4.919101991327059
Ge 10.430303640794438 5.40633491572165 9.290227061469045
Ge 11.12272252183508 11.980473910439466 10.909676328095966
Ge 9.282445491188547 8.791615001653279 4.8191645990684195
Ge 10.535063005139268 5.794182350122407 12.383685009548042
Ge 9.312306231784758 9.822389436070015 10.789436789834626
Ge 10.413454283748212 14.441137182384317 12.08752097492299
Ge 8.67594855599375 8.691790884226089 7.731913801945025
Ge 8.274186729262338 12.231874403466689 5.695603758302763
Ge 9.476945956327304 12.77428284972936 13.8495872534868
Ge 8.906810492699098 7.064032784802747 10.793724253304836
Ge 9.199081205255528 6.974037182762524 14.794644960055493
Ge 9.316755918242906 15.683017962985852 10.152031060714464
Ge 7.218381845458087 7.103832557450585 5.781174348205744
Ge 7.627999904118117 6.2063214589918205 8.319388257871573
Ge 10.580394707576241 10.878030980207301 7.784182201480655
Ge 9.426184523636547 9.509592926433172 15.526712700877288
Ge 8.246844206026292 12.121404124055225 11.643465577981155
Ge 8.311014386170267 8.849781155357245 13.137049160326589
Ge 6.972283137729781 9.82556175189621 5.879120886431713
Ge 6.707198703354064 10.312167479739283 9.983172924200181
Ge 6.789160756026762 12.917502482958138 13.696513248537732
Ge 6.390779860483704 7.728653843040426 10.724995278700288
Ge 8.12201882976923 11.859394433982597 8.282532929680764
Ge 6.870805919638682 6.572511943939638 13.47138465809326
Ge 5.982077605308221 8.41842822520581 7.9027198672703305
Ge 7.5834979699345295 13.80618140584425 9.848743005336265
Ge 6.794227048102409 8.071043405567401 15.755966480767588
Ge 7.158833196309217 10.542018982860146 14.720302637424657
Ge 5.643652553357106 12.50875432165846 11.125805197158465
Ge 5.578275983939384 8.869838056154906 13.397431285083789
