5
Energy = -10.19149917 eV
Ge 11.009908907933358 4.656709907978741 1.1973031283747029
Ge 5.494742701279054 9.368908594210184 7.973998716985138
Ge 2.119832284097541 7.112919256712043 6.318540100945487
Ge 6.070289918924212 1.669101608293249 6.694936378065923
Ge 4.787687917395138 6.672024481339279 7.2941624791895885
