53
Energy = -214.26107601 eV
Ge 6.116674185580462 13.647655098408283 8.79513353378426
Ge 9.738129157945945 10.410194190033604 13.46038267151583
Ge 12.155336354703275 6.286085992397772 6.060072079501286
Ge 11.40080781084218 13.141465553206165 12.187417818100421
Ge 8.798035805132425 12.047076058887244 15.956000649899977
Ge 5.57041853485235 10.3044107225442 12.19150104186568
Ge 9.125486251934882 7.868947726031946 11.02234491896734
Ge 10.313737149863478 5.405257161703192 11.9644154131838
Ge 12.69712580108453 6.67846131490069 11.889196260798125
Ge 4.856758308589711 12.329447077514764 6.74123282232242
Ge 9.373786412512645 5.72093038572721 9.556737390624905
Ge 12.914236202177461 9.717475765385682 14.303134741647733
Ge 10.739011146304058 9.892159018618422 16.00745623251262
Ge 6.8203962796717414 6.469172293868312 9.867801917798941
Ge 14.220691469346392 7.1528350495618565 9.625145155662656
Ge 8.813381141533755 13.07737508027057 13.510749410780237
Ge 9.298103433842332 12.393569757905281 10.602739601128501
Ge 7.702309767497205 10.118306368748842 10.537885864582831
Ge 13.694609852663552 11.556600315222672 6.607067737567248
Ge 10.237973778996823 13.723093713677466 6.530752956800935
Ge 10.050620058543263 9.45175281568739 8.523642461484258
Ge 7.19032967471799 10.831121615131606 14.218280060850748
Ge 11.612667077712679 11.134153767453967 9.946864324269448
Ge 9.679502155544464 5.5930423007358545 6.9603985999995865
Ge 14.20496291050758 7.393027523609936 13.91983467439848
Ge 5.300059054721355 11.094499516172798 9.30595786598372
Ge 11.261601470872408 12.269115295340137 14.760599052311944
Ge 8.61692242218013 6.825263183450746 13.385622429185679
Ge 8.52608526897396 9.413845863493988 4.420128298788346
Ge 4.728691375009662 9.640114568760318 6.939484548662009
Ge 9.83534625184859 11.874884226653087 4.52996034314219
Ge 7.003661865811472 10.978482786666055 5.858301732594422
Ge 8.537343707374275 8.759372853283303 15.2132708484538
Ge 11.402343814313864 7.542263132687959 14.454405336469177
Ge 12.17586281392837 8.146191980680614 8.108986801912762
Ge 8.574302406395025 7.909660583199058 6.923194017655629
Ge 12.369134487667083 10.562401386234395 4.540438583406662
Ge 12.144360363604564 5.560962572374297 8.521463813352828
Ge 8.011569392848042 11.642511286388896 8.166453452417972
Ge 13.263692497382392 11.079096958470037 11.994061536259322
Ge 13.907214718085433 8.873799368696199 6.135822523651741
Ge 6.450583877916179 8.168024535730837 5.420624212485106
Ge 11.472350606557217 8.981833742312856 12.01019710459272
Ge 10.931329188451283 8.585360562464883 5.525538744227484
Ge 8.771989364780692 14.202489106194923 8.720535247461225
Ge 14.53687825096361 8.771311048722884 11.69763872991354
Ge 10.965676944008399 11.17684708131034 6.806901071159674
Ge 6.819166499298739 12.619080531246704 11.627725201317514
Ge 12.243915348597927 13.086155013410346 8.2159010702215
Ge 6.535954412186097 7.645411431978923 12.104640828224992
Ge 14.159576959445285 9.78400309604275 8.686535698915463
Ge 6.583328911190005 8.606094065311812 8.479580195978887
Ge 7.313071848554299 13.624412400554707 6.226947216273127
