5
Energy = -17.23556152 eV
Ge 11.114196451699 10.691448702784413 9.577377664515733
Ge 9.625087221067778 8.74874638519138 9.977554632405187
Ge 7.945863168656103 6.924182454722961 9.810177963477306
Ge 8.060545324257093 8.485459327468924 7.873595744784374
Ge 8.893172253998983 10.785010193463096 8.440618734803335
