53
Energy = -192.11698144 eV
Ge 11.619073485144545 6.34804466775047 4.330906376160793
Ge 9.316168648758694 7.577531240097249 2.7106512037399075
Ge 10.694904496672262 10.287229406008276 3.3262393016333847
Ge 6.340054742605297 10.565526502424179 3.5993261459905055
Ge 4.571814574582284 7.268706348353006 4.117640968383264
Ge 8.212613250861837 12.786516373710342 4.601278894265648
Ge 10.234793971571372 4.094798930804645 6.530202570408927
Ge 13.380740661395226 8.81640862484939 3.743600027368474
Ge 11.881649248928651 13.133787265027838 5.4610543759263095
Ge 4.142944094659716 8.931017202781465 6.702237163449445
Ge 5.538117169013368 12.194844916950325 5.907056438715315
Ge 10.806200129352408 7.0110228787574185 7.232628612711913
Ge 7.456212244411056 7.764897322353106 5.097236134803049
Ge 9.972094921232843 10.877769126886074 6.23340211556267
Ge 13.471135460328247 5.4619372895527585 7.49632034646157
Ge 4.435475351932936 5.8387751033385324 6.839164412566534
Ge 8.476478751265768 15.883047888424645 7.723822625447751
Ge 7.753864579032427 4.624743521573418 4.859984289752166
Ge 14.617577626903438 12.283876977862244 6.553848348095353
Ge 6.71839399915362 5.979993300463614 9.503403398317113
Ge 13.404567513819053 9.523845169142422 6.6887755451558375
Ge 3.251851180539624 11.880794015164518 8.788945737649343
Ge 9.591253695681718 2.7590510979680203 9.581618346906986
Ge 15.612964705969956 7.6394569396551315 7.579506426812665
Ge 6.220929335229192 11.129634659959558 9.092330642591742
Ge 11.322984799773655 14.831083623366263 7.91196567344481
Ge 1.8425433605357524 7.187525290183117 7.726857641553996
Ge 14.720605422347637 12.021097566786432 9.60799873950217
Ge 7.158615770393804 3.491803557906461 7.63530025268126
Ge 4.5754627976229525 12.048601259554987 11.65171026635773
Ge 15.007407504684492 7.837596921696272 10.5986729732545
Ge 10.233891916973542 12.771155037544982 9.883931545556141
Ge 13.642034227506185 5.065449888323517 10.607850800643256
Ge 3.62334389649683 7.835339117134331 10.175070612093252
Ge 2.067955938931377 10.288068968972121 11.099872403857546
Ge 12.725491301985999 9.852836006039391 10.448401298617355
Ge 6.320481404705859 14.221246793385907 9.117487762926052
Ge 8.673394812449093 15.27918250941323 10.736672473896343
Ge 10.574112674919306 5.405499982750132 10.781743642053087
Ge 3.6779808848805833 5.748854477731367 12.441888801344755
Ge 12.787437026902415 13.727312273214743 11.26735426381587
Ge 4.7550121829211545 3.8093961656649866 10.280203384903844
Ge 9.309676712528562 9.54550945529311 12.556431089814124
Ge 13.56369847225731 11.319764007562885 12.992305781222727
Ge 7.500828085008066 3.8083696302371024 11.648476742580241
Ge 13.137518698069401 6.055955573226149 13.769725584347498
Ge 4.791942068690941 9.615466702603303 13.658569577313974
Ge 10.75148038866224 4.188329964975341 13.59572631964367
Ge 8.778057529277586 12.528258886544954 13.308556185091913
Ge 6.314041564392063 7.217870061499693 12.74429905288
Ge 11.019774426419602 10.939128940508766 14.646651483520658
Ge 10.514682571045007 7.0825092149370965 14.514481039738754
Ge 7.518710483261835 10.244572115773535 14.92165492115795
