50
Energy = -201.93694935 eV
Ge 9.669236470271303 11.239769396756806 15.500540146288278
Ge 8.822287158311042 9.132310983716714 13.849571854024857
Ge 11.635630369422 8.06756414026022 12.459818086618606
Ge 8.911131853504125 5.829082456858963 12.822094517566681
Ge 8.449603688205729 13.670708330780146 15.639523525433452
Ge 11.023178761311243 13.647309600071388 14.83945028960466
Ge 9.244994126876096 3.771747227062783 11.135929673250612
Ge 13.04146149728439 10.838127002543105 14.666162973613622
Ge 9.43786827887762 12.316017009870704 13.04771862189649
Ge 6.948094117012734 5.214627768015592 10.859485059346945
Ge 11.36038961174842 5.416523437879456 11.577207457574586
Ge 9.439576409702001 15.145280528081322 13.190554087722058
Ge 7.192906341850732 11.483913703303749 14.458762708003716
Ge 13.593342871319118 13.360321181212653 14.152979896080947
Ge 6.6385730437616175 9.641092069326627 12.37299810832678
Ge 14.14598886864266 7.303639754897143 11.684342610490768
Ge 9.439070873253089 10.130652367225052 11.469803242841579
Ge 10.350590815362354 7.431225441283004 10.185613699329839
Ge 14.599031656872066 9.575631932684786 12.902683909168644
Ge 7.141131307280487 13.785768117038014 13.153222510238114
Ge 8.211316338700598 4.174603885072062 8.688455157536898
Ge 12.140091711055986 7.144357653067912 7.988422375029682
Ge 12.029968300819652 15.101180407285904 12.377532760440591
Ge 10.747872474532086 4.981570552307142 9.028506267300882
Ge 12.51852677425182 11.564474236744218 12.224423760685367
Ge 14.501123051685367 7.77332363329443 9.055172979716314
Ge 14.146368327647009 13.532815531717286 11.51075687240097
Ge 7.327382897315486 11.047672891329254 10.315643545452389
Ge 13.032031161881703 9.471068875328212 10.512764892455216
Ge 8.180280803425177 6.7158374547994555 8.760484107284572
Ge 12.485019644345797 9.734666360168992 6.519974211577216
Ge 15.211825955113188 11.220503507170951 11.092205067202862
Ge 10.065900927531501 14.251854733481428 10.560535050106813
Ge 10.556089129312893 7.939106575914522 6.028240519615613
Ge 7.894236248095217 7.634935263209553 11.221807825852782
Ge 7.48056984594875 13.565994742059369 10.428767273912674
Ge 10.867698494006047 11.958611758582185 9.720154687840129
Ge 10.668004111378222 9.477890076726409 8.459528216728756
Ge 12.666530615708734 14.720021320270622 9.605754815100104
Ge 14.729184690963116 10.45081191089838 8.633110583935819
Ge 12.943299918069048 12.451922154332706 8.27160219753553
Ge 6.653488350523406 10.993697420577487 7.877276422163926
Ge 9.400813988745533 14.820966013252374 8.025611952416348
Ge 8.389247867832854 8.962355766942958 7.386741598817682
Ge 9.99075484078938 10.750423131909569 5.576910863536899
Ge 9.066999928630151 12.125232516473684 7.824045210662087
Ge 12.305437396825647 12.270215228942119 5.619544124677407
Ge 11.790711786555082 14.57918292968961 6.777406100396211
Ge 6.944983112502306 13.877043066236842 7.877270588108497
Ge 9.77226635465496 13.378706920523195 5.507823384371423
