53
Energy = -214.84922475 eV
Ge 10.067421464018393 5.775988717851613 6.702991505952154
Ge 6.946158999032843 8.825797203301395 5.89727573512636
Ge 6.015430721550392 6.874234470035226 7.6156638181883425
Ge 9.16890265469173 7.650101505660486 5.003838216916401
Ge 10.673449709598467 6.309680199896571 9.240200029264214
Ge 12.102810547187191 7.488501378897354 6.581457052568281
Ge 7.999043154294396 5.218089140330394 8.325490076148087
Ge 14.473574237117589 7.0192933671718665 7.484521220955026
Ge 13.239859315998808 6.273149758625417 9.709776418136812
Ge 10.353477469376784 5.410386447722851 12.696213236068896
Ge 8.590912172850615 7.857094852324446 7.764504068998325
Ge 8.46268148625358 11.01067630822658 6.32667249708128
Ge 4.906461148636668 10.46880985456986 6.255657425845086
Ge 8.62101867409298 5.900305474180133 10.794115625585919
Ge 5.279572797176792 9.41295802775443 8.52377340019268
Ge 11.11402300171561 9.447098067713002 5.338413538665242
Ge 5.2239475296035165 7.391819712259254 10.05614664211383
Ge 12.978004466465682 8.849491883355233 8.9858243637818
Ge 13.12639379685789 10.905694652340387 5.8935471985937316
Ge 10.900933962220657 10.07924115612769 7.85489485848214
Ge 11.033232913709847 7.96929697078381 12.383191761732474
Ge 9.712831629263617 8.571528344719077 10.188216350820559
Ge 13.04041730083087 6.0455589738198325 12.374643555011119
Ge 6.669652212857182 10.507210306029112 10.346838425685425
Ge 14.993155463060699 9.643995443249118 7.441122289641094
Ge 7.364239586340938 8.205524560114874 11.407781334297182
Ge 14.640428053254213 8.124619736751493 11.094581106698731
Ge 9.811008235985934 13.447098532568772 7.092283990900549
Ge 6.2511508689784545 12.587115163461734 6.9010331964070435
Ge 5.758622019180683 10.372531957346961 13.17149404098941
Ge 9.58884820242886 7.04236524270823 14.616335034828552
Ge 14.908730941354287 10.69502234234232 9.914685166177195
Ge 8.211727281351557 11.938890561603989 8.744806937230063
Ge 12.068219445286292 12.425848937019149 7.585393882575831
Ge 9.780390896314268 11.143284783244157 10.871744011744443
Ge 8.037437847432304 13.336304613420557 5.230194700376213
Ge 11.222556351106302 9.041181961054578 14.762242259110268
Ge 13.49459665193059 8.363414812212781 13.559730432818835
Ge 7.561607253791186 8.55458313794818 13.907748370166626
Ge 9.001796897160073 10.691344260770638 13.277310763496578
Ge 12.403867152452541 11.336601616233677 11.023628152425786
Ge 5.40322654407377 12.493623836010638 11.468939757222381
Ge 14.693495367695938 10.562490948716588 12.659108159235547
Ge 6.160852986188591 13.89801384469978 9.207757081323185
Ge 8.724032050453502 14.634824910215574 9.123379033764918
Ge 13.708798772872239 13.053797918331826 9.450383379493728
Ge 10.049417752667187 13.723898741123783 11.122182900753703
Ge 6.910194067738773 12.612598143437134 13.765218738256305
Ge 10.90058739232492 11.62748123094486 15.038121568752189
Ge 12.8624959131685 12.261635833082062 13.428011893147863
Ge 7.403827973344253 14.405580872822725 11.765004918561774
Ge 9.393297118252217 13.33504422671776 13.645293940395131
Ge 12.591351748275924 14.071291623265832 11.573797914463016
