5
Energy = -17.84322909 eV
Ge 9.762327292066836 7.601926221365693 8.4718956352423
Ge 10.20539302325309 10.023135594129124 9.02615834175281
Ge 8.002307654730616 9.650075081314116 8.147500504094923
Ge 6.769292749820455 7.841050925009157 7.159097724626218
Ge 7.5330696926165315 7.157357873990297 9.468972166492298
