52
Energy = -189.91712148 eV
Ge 7.488178145863396 9.748963825689161 15.29556993692605
Ge 9.736781174676963 5.68187977198536 6.673694041619795
Ge 11.936167976314394 7.4067169775846775 8.365561804687001
Ge 11.09564032183088 12.502415506370895 14.634729795457083
Ge 13.352534489415707 5.040433588109037 11.190220943690813
Ge 11.046370543040421 8.401252430528395 15.51157303997356
Ge 13.160809025769456 10.165952661153831 6.414782449335509
Ge 4.7285551390063425 5.997841132324011 10.673359064336758
Ge 7.03338211803713 12.556700753692926 6.474403166219656
Ge 7.160261622771177 12.553457321815074 14.204522222206664
Ge 4.5865347878849 15.140866635643581 8.988544451154393
Ge 15.195143115009175 7.446691684014928 8.141410695306126
Ge 10.233870920738706 5.651193447983925 14.384679071502845
Ge 3.5845286134637893 12.277774183436051 8.895521679771175
Ge 8.171903130789778 12.748844343122002 3.664957254303224
Ge 6.794147781372672 6.647521931576447 5.877715640332543
Ge 13.573575853167807 11.246426354706808 13.33938401107512
Ge 12.035398186722478 10.919712416027554 3.6565351312994445
Ge 5.391777112290447 7.923717515116022 14.11045409880448
Ge 7.230107601213656 6.408528512507332 8.952740278185273
Ge 4.640702509768576 12.490880727708298 12.649091958201431
Ge 4.1905844933024685 11.628884951397984 5.958280788666638
Ge 10.44416100948084 14.852959415325278 12.776742279799242
Ge 5.9317039275620544 10.803414354328986 10.262224180296009
Ge 13.2271289023312 4.866895796775941 14.248443310424909
Ge 8.552672325395939 9.073831786150016 6.613206736004759
Ge 15.141002693533684 11.114266835175671 9.561694507596162
Ge 16.018659830699992 6.4836747310820675 10.925284191364888
Ge 9.75205349290326 10.067885084127308 13.270308958894024
Ge 10.526541084525654 12.24409332650664 7.4780626178611795
Ge 12.288825357691712 6.9577089656323015 5.316788513861979
Ge 13.918100164753445 7.841166481164743 14.596629673021706
Ge 12.686981151874042 14.364443725688481 7.55718230421156
Ge 5.91591952454459 15.11065418353573 11.710183183993362
Ge 5.504352862884683 9.232715118145615 7.342746334365712
Ge 9.137027061206167 9.83491485516155 3.6713119068663476
Ge 10.217654113273571 2.9264604850331875 8.044283732189692
Ge 10.946765763408202 13.584566651715132 4.724607305331882
Ge 15.10827085647002 12.579028217323868 6.894013294177644
Ge 13.548805634784877 5.03722787000271 7.3037767344191655
Ge 15.190342440406358 13.329984486650362 11.778248780924347
Ge 13.591476876144613 8.159942090230832 11.56127509464221
Ge 6.903852041395837 15.529625039159297 7.018901202981818
Ge 7.465133577960853 3.33876327616346 9.228711827228281
Ge 9.397993829507364 15.023064773118923 8.65712537035949
Ge 8.345434706257167 13.355005967796917 11.098220943396054
Ge 6.970211080073144 5.659353072815841 12.759905017947302
Ge 3.975834486421801 8.85213639464949 11.565476416449336
Ge 12.75985293613064 14.927464332938808 10.736999435436008
Ge 9.95976004982847 3.6181963925701273 10.998356850903134
Ge 9.697299469489728 6.658817052227103 11.541619091801046
Ge 12.350100532762285 11.825955012461122 10.540811126347144
