54
Energy = -218.06229502 eV
Ge 6.874236193983156 9.48482565847853 3.716892929053695
Ge 10.69611918271459 10.674411240230205 4.474301662543442
Ge 11.002087390509487 8.057982715059358 4.50714619978832
Ge 8.184136144052212 11.371012131494961 5.030003880512753
Ge 5.719867911902773 5.626626693409247 4.297383280412878
Ge 8.208540242866766 5.206855123781809 4.419384592129998
Ge 12.264391212843876 11.996522805249821 6.120942610831481
Ge 5.271402774516243 8.086063127994095 5.267972709519512
Ge 5.735959013406884 10.585196597509013 6.152357837589883
Ge 8.446699916984294 7.700318485723902 4.7316605672530585
Ge 7.971622973906001 13.517425611829513 6.467418913083028
Ge 12.456773413782596 5.754424225084392 4.870602902926009
Ge 13.183133477365821 8.387784070966385 6.1323818730061515
Ge 10.357401514594537 4.193757228240794 5.533734831416561
Ge 10.672651955603717 9.671115557736167 6.887316530373126
Ge 10.24963869836152 12.92305694509663 7.399789309264035
Ge 6.194803671108644 4.242915752506503 6.420790068252369
Ge 3.473811765305134 8.017049089830534 7.122910658376348
Ge 8.136773917750267 10.847266586384825 7.6777963823938515
Ge 5.124479941060717 6.108109474737587 7.844107524169287
Ge 10.93096737612585 6.607134868548765 6.859376620900616
Ge 6.134450055349274 8.521629468373668 7.872655011901172
Ge 6.354937093714698 12.595402398637145 8.41617495709324
Ge 8.4963587785288 5.099078233327961 7.250576993631615
Ge 12.840383374660453 10.473254649330045 8.149176408003504
Ge 13.352155941309205 6.015390556772562 7.523198363890238
Ge 8.591542763894635 7.8175976386812085 7.362886243059929
Ge 11.366948882639266 5.4495480973251365 9.597085026222615
Ge 8.782886445307891 4.915365830835281 9.832910759862317
Ge 4.27432172031867 9.968231561925322 8.870765144737046
Ge 10.086115653647157 10.997436653618786 9.702973023930442
Ge 11.83008382200614 8.164893480239055 10.449633178833967
Ge 5.269304143622351 5.655183079614776 10.493166314671484
Ge 4.19428582761172 8.065084848712782 10.751650583547933
Ge 13.987329195145398 8.261683081399608 8.91079688947423
Ge 6.177998584257017 10.982083295276409 10.851753880828067
Ge 9.3984542150909 7.467237433267387 9.832531028987837
Ge 10.927811852825524 13.946945218083501 9.737536329895535
Ge 12.496931412045447 11.861452031518178 10.406595186650646
Ge 6.855779305779587 7.811219919388841 11.01321563415968
Ge 8.488057869479873 13.242041625305784 10.229906717273963
Ge 12.396517227937608 6.052793140156916 11.94131089092853
Ge 8.563888297592952 10.269466729765048 11.798056895098727
Ge 6.13364430926933 13.649177292136788 11.071385722877547
Ge 10.2314686022188 4.323575536277416 11.979048730296372
Ge 5.14637644193429 9.409369413863828 12.84462424363573
Ge 7.227534517319442 5.443533901994698 12.376948751695897
Ge 11.56835118968691 10.222566846819424 12.22216375380927
Ge 10.318904419533604 12.65830869829381 12.294336991184942
Ge 4.561812882432833 6.758193370820089 13.010176214320492
Ge 7.754691474685413 12.592641572044935 12.867981367263152
Ge 9.903548706602274 6.8882075626839585 12.39378433614834
Ge 7.095140059352092 7.824030015468097 13.670849703498156
Ge 9.533833160331579 9.034869743023394 13.83721975366795
