51
Energy = -205.61712142 eV
Ge 7.172123607306244 8.772063165542187 7.777720378997273
Ge 5.60237402463595 8.293867975382039 9.871477047807687
Ge 7.2684288080176795 6.130441876531774 9.439581200003964
Ge 8.98458060932653 9.258740188238647 4.4978866965090925
Ge 8.036659210220108 7.156967779590072 5.881626672040839
Ge 5.49404991366629 12.88998595652605 10.84661259568063
Ge 8.088302960322654 4.664868322617283 11.53406230093612
Ge 7.610812683797586 11.06493433634571 6.51876636091422
Ge 9.455446868729254 6.723889528352149 8.162284070745555
Ge 7.037091373932085 7.103777627500164 12.000733114103518
Ge 6.568738490615164 10.47104422494154 11.0555532846991
Ge 8.632131273968017 8.67640214814612 10.08668417199343
Ge 11.555172024983575 12.110064311217384 5.149425981215471
Ge 7.713682316475103 14.311347390309846 9.549603480500743
Ge 10.785510745232388 7.718732302189428 5.353344786026666
Ge 8.092752241412665 9.367986832105949 12.742463045142026
Ge 11.65172623458058 5.163121643102274 8.061949571614662
Ge 6.169752074891978 13.211164089675172 13.51475489397389
Ge 10.675983182869558 4.5205743885797585 10.465797069176144
Ge 9.945503037955042 5.293559835743957 5.933694334772403
Ge 6.362345126080807 15.304260052949866 11.747446808996393
Ge 9.934111695797256 5.796027520480982 12.801931191686782
Ge 12.673715962823572 11.174095962673862 9.1044522447243
Ge 10.26035373543679 14.97885267548016 8.658403252299468
Ge 8.394064600278961 13.120114158212827 11.852452908004475
Ge 14.680630893523784 10.25942403063072 10.670505257119338
Ge 13.930463880512095 12.838899980060123 10.772905208087629
Ge 13.18918815766735 9.675196971704331 12.685252588818457
Ge 14.416093258442732 13.170018064599828 8.227347289913313
Ge 13.543708457898804 8.512106018517976 8.993040084497101
Ge 11.503482401313136 14.093270207797193 10.863297505700027
Ge 10.975759667791396 7.346665896691103 14.452852678751954
Ge 10.393143197175633 11.954411056866764 9.973649721781104
Ge 13.316887610325265 7.133126520789781 13.300001751349194
Ge 9.861057415422762 9.799154014245378 14.581890035371828
Ge 11.77019441075795 11.498435403028136 13.951639772328587
Ge 10.59905346144823 10.340401532307226 11.98159432791157
Ge 12.071366033234598 13.519418919584442 7.2949319582727465
Ge 9.139692559945647 15.795532696255071 11.504192005524686
Ge 13.580570199068967 11.159970922312901 6.698848149738901
Ge 8.617977417504191 12.466279525506613 14.390939427671722
Ge 12.880524947067983 6.274285236651059 10.456654110151508
Ge 10.493978624750131 14.186538243969812 13.405995134641952
Ge 12.349005671434004 4.598182959949782 12.499415224823888
Ge 12.885401146826421 7.231421190631589 6.785146982147065
Ge 7.9299517666106825 15.278083348788021 13.934280003962241
Ge 11.250344465284808 7.862379502119353 11.680989682991896
Ge 11.004688690213161 8.726776130418054 8.301585467529298
Ge 9.546719213362321 13.228534617053846 6.594207228657747
Ge 7.998706823194699 11.58276786945635 9.067716326935535
Ge 10.134190954622683 10.420028976384264 6.550608741509701
