52
Energy = -209.6245689 eV
Ge 12.98210043701949 13.119448437345174 6.662929192815471
Ge 9.60345562391997 11.928138191211648 5.604585195230097
Ge 8.915387995568317 14.301951380330802 6.462535738462878
Ge 10.180395315303711 8.451078930133153 5.724902189642072
Ge 7.486937285127576 8.04514612290114 5.83225005812432
Ge 11.714587573608918 6.605727894069736 6.758383506893996
Ge 11.970489351263893 10.765059353903489 5.797731944955542
Ge 9.019651358995555 6.076166112324728 7.002888127975274
Ge 7.23722984163784 10.951214486878747 5.917509020738681
Ge 14.788454913024891 11.531697662205605 7.660835857790675
Ge 11.408886780830539 15.30814801625708 7.145594649095172
Ge 6.683810767415204 13.120358947662403 7.340673571549596
Ge 6.8478529452518835 6.824933016788601 8.394098314959969
Ge 13.634493107503543 9.110840958157787 7.170896147850305
Ge 11.223017463633067 13.539142866915709 9.2839005868698
Ge 10.825917258787499 5.502120339580762 9.046584036269959
Ge 9.024480822025897 12.169538609228585 8.231656066952826
Ge 9.211546575227405 15.47070128978259 9.120499671594843
Ge 5.992789537428848 9.225920201906884 7.7542200294549
Ge 13.646886717892471 14.859127763892968 8.785665161773005
Ge 8.898212853804358 9.576009682930215 7.7359946926429775
Ge 11.393029280194245 8.372790471195568 8.676064815031232
Ge 13.096217400192787 6.252875188204042 10.404276438243862
Ge 8.988180511213374 7.151790251918483 9.933873344330902
Ge 6.765041880816314 12.273020087427549 9.807042293382684
Ge 12.136263764622528 11.037158238705137 8.423099336816103
Ge 7.423575514752823 9.351638671151191 10.00578558901276
Ge 11.556514329002995 16.52391188263945 9.5892241296382
Ge 8.112587687743085 14.021852483920856 11.156777518325068
Ge 14.106994859731856 8.636510964204888 10.01887269326471
Ge 10.860213621093662 15.08939258529707 11.71226439397152
Ge 13.146277612228232 13.796188540482422 11.15470400343713
Ge 9.349359992594517 5.516290613134199 12.087497635709875
Ge 8.957228400177812 11.362420806972588 11.274596356900851
Ge 14.078814827865006 11.486621622239099 10.15460001911827
Ge 6.6752695692747706 6.181946804075394 11.606273831559546
Ge 11.606785560205488 8.34503542087884 11.497285852404026
Ge 12.02881879741622 5.995652028888126 12.791181446927814
Ge 11.328209035671225 11.878158436174491 12.11926972714644
Ge 8.763741426209322 8.243135116456498 12.702370515561094
Ge 6.189467863585379 8.779665324519078 12.324884580769064
Ge 7.330224407929053 11.03397657572137 13.360558392476877
Ge 14.365170255982642 7.630239956493838 12.552774572515263
Ge 9.451023825612724 13.475280233090082 13.267611792769019
Ge 13.427292293234103 10.132991791605312 12.469263688442023
Ge 7.388781887444728 4.699685946086172 13.697247511073748
Ge 10.26678769634353 10.032200005443844 13.995161942154496
Ge 8.630670430767996 10.917424800482388 15.657568967010327
Ge 9.349300341962476 6.4423703739513645 14.669932381794366
Ge 6.37907035252658 7.032590767229203 14.344090847474313
Ge 12.258648771739548 8.171054375940852 14.267137286069334
Ge 8.068141274146495 8.427947368616328 15.61866233257967
