54
Energy = -216.27215336 eV
Ge 11.660938550532974 6.935504271886643 14.779816102943359
Ge 13.283753803655179 15.637562989705424 15.85057597108512
Ge 8.43417904925769 14.061692072473237 8.66637631836707
Ge 8.719090048657012 14.91089679596303 12.696700429389367
Ge 12.901823761665412 7.201802006872925 9.658869370110049
Ge 7.510433513698538 13.133280445835844 11.036461739382808
Ge 15.981158432731485 8.779763667585394 10.143005817357754
Ge 12.044620585626745 18.076495955837256 12.020906524800674
Ge 15.974022782268657 16.282118120906446 10.321084978103078
Ge 8.961146539752287 16.369277752038546 14.8991488859401
Ge 15.518893356008288 11.28425541254287 9.035769910589954
Ge 14.286771545836588 9.026572296701085 8.042533656849303
Ge 11.239787555510736 14.873893973941188 12.43108328767664
Ge 13.4485473904745 11.28604642497707 16.40364234562081
Ge 9.121245221859729 10.11739502552364 18.976945154817663
Ge 8.66527898838231 10.960021329438089 16.724028704571165
Ge 15.261997509836123 14.755480566672908 12.250685110686371
Ge 10.120041941224487 11.564244259515863 11.324600147988264
Ge 14.558952881350953 17.485422400816137 12.57936916344466
Ge 12.213671258577095 15.657165357994435 18.224192088254966
Ge 9.881208797432206 12.687026955957217 6.975859204572105
Ge 16.217135472678414 12.152187395364955 14.712278662558488
Ge 13.543291920875319 8.627153680320198 14.340699069960529
Ge 9.77013659321247 9.690048970788789 7.354267348164842
Ge 10.551575404898045 14.907052715687469 16.378087467838615
Ge 12.508325293647001 12.682103408070958 12.614987648512463
Ge 16.053656276894767 9.246589818001262 14.432816601337137
Ge 10.433487850815307 8.110785888243184 9.39525084723271
Ge 10.775709314225429 13.51994985337494 9.581814748379523
Ge 10.476101481137386 12.429758602308302 15.630440177607062
Ge 14.393191073641116 14.441059240533406 9.274359486845162
Ge 14.151399760636805 13.688011928676428 14.383528622906038
Ge 12.110919714662064 10.686782654925832 7.717058086054206
Ge 17.720913788941186 10.674595988012497 10.29516018971732
Ge 8.940426799136308 12.46905335040159 13.438593081444688
Ge 10.079199070850427 9.05092153939288 11.678162518303047
Ge 7.850592308929315 10.290715223513839 14.375789054134813
Ge 12.967287966130668 15.897827448220607 10.771312241717908
Ge 15.943344136113987 10.566926747176343 16.621615078672313
Ge 10.158254998394797 9.070129206852927 14.26929538934821
Ge 13.670291012733474 18.403223942637112 10.073426043976578
Ge 14.431907802336536 12.465973492436355 11.039515377516521
Ge 16.07369260321488 18.745003016800034 10.81053227615878
Ge 12.038396467746145 7.344643581096972 12.239818611708966
Ge 14.0452454497398 9.119139751676471 11.801237848151457
Ge 16.149821870524462 10.956946229601831 12.336581129736759
Ge 12.503921622287564 13.36143599208076 7.557065656640768
Ge 12.385027605786574 13.226815391851177 17.632180000737435
Ge 11.475552166458824 16.51295014128833 14.313263706139908
Ge 8.760185605049381 11.445405987257661 9.092187822913672
Ge 14.38919432999735 11.554281431292578 6.709230531443746
Ge 12.103870558992314 10.796670530686827 14.224428271185383
Ge 12.330637621277273 9.885899983770418 10.103210023591288
Ge 11.182618607822556 10.855646950665475 17.83997556670462
