54
Energy = -196.74737444 eV
Ge 14.142114249970799 13.359975215328294 5.7197236123640645
Ge 9.810503524108695 13.775418181972912 4.407665034362227
Ge 11.189781256631088 15.783257136244737 7.078163946611582
Ge 15.350190559054276 13.883269054911805 8.511039177242324
Ge 12.048550274953532 10.394000753814478 4.449173403784132
Ge 11.95459811256012 16.145828171812255 10.074329685878403
Ge 15.828255283103667 10.764141602953707 5.769346347057846
Ge 7.269523590308624 14.459886432262461 5.94868291176614
Ge 9.095476398393066 15.606979806899973 9.093671090179187
Ge 11.40734950731261 12.466618689850202 6.759363608336864
Ge 8.06704085981305 11.497782995859051 3.2690448295003143
Ge 15.248862831038203 14.552734145957986 12.082317592374176
Ge 13.00691527798682 13.27694199824256 10.375693762827243
Ge 13.118105122244282 10.135284973024033 8.797721613350925
Ge 16.128119704850043 10.947490058623403 8.843678146842693
Ge 13.732079931500897 8.56339279039605 6.147163418635634
Ge 11.21533060881937 14.573195004128745 13.14937366964509
Ge 5.4348796281598 13.134137663603276 9.604653225445436
Ge 8.345629110134329 15.42627897698952 13.77871928017273
Ge 9.569131868014994 8.853227071947593 3.5953637343524303
Ge 6.14196660677185 11.563290173506122 5.655537160672675
Ge 7.9451652196633775 12.346774643450559 8.04567642837977
Ge 15.178196819829855 13.277853558641487 14.851583391849184
Ge 5.332382676955648 7.839790614567417 5.226512628816385
Ge 8.07898131294489 8.719713153352675 6.247372782305404
Ge 16.891613171975784 12.062612485597977 12.663183524547906
Ge 10.07210579808429 8.903625608667554 9.915438208334969
Ge 11.16607607442631 12.67498356256204 15.603087683089957
Ge 14.213017822964794 8.891382519882299 15.603602674393008
Ge 5.317913552800943 10.739302046755741 11.536702752393806
Ge 8.804428168353715 13.221893650401867 11.798102199415633
Ge 10.880583790783223 6.852849645245866 7.79252055863725
Ge 6.991764529427972 9.232643620945632 9.383681596832698
Ge 14.096726375258056 10.911336469523672 13.273878540894549
Ge 13.472205228023485 5.8908970286313 9.196194598736094
Ge 14.24334016808669 8.262183565513606 10.919215113225423
Ge 11.578543402595686 7.889413751912012 12.730765360505671
Ge 8.23724981518123 12.522186249333775 14.797703323053662
Ge 11.216912959430212 9.611399378456689 15.391051484071951
Ge 7.139220738888296 5.768191797860423 6.671382737173905
Ge 3.73997955669417 8.12131713038612 7.788366975459741
Ge 9.09480393856706 6.003896246267143 11.422336261219513
Ge 3.406544199435406 10.887976404867391 9.166961922572785
Ge 8.04262380200024 9.080768862426973 13.501454006337571
Ge 9.607696495696526 4.263998408929883 8.883618629858194
Ge 13.688123476207934 6.144571489821006 14.263024511734557
Ge 11.698174942719634 4.349162825246051 11.14890562508145
Ge 7.906418904288013 7.889461579163603 16.342498072307396
Ge 5.820742596783803 6.427315229299007 9.364547090778075
Ge 5.4441587802174265 9.286788594936578 15.06414011426462
Ge 5.7594455906680295 7.009270781406077 13.04699302869852
Ge 10.929780264264513 6.060814029019819 15.517572434334832
Ge 9.342251279953235 4.055349575592095 13.986664985387533
Ge 6.807553554929008 5.208168131556716 15.299681026714538
