54
Energy = -213.3091244 eV
Ge 11.412934970331627 11.196685050434601 14.167032400845304
Ge 18.959728607349817 15.750829949408958 9.478965538585191
Ge 16.517756319617458 13.781869153889023 14.98816340824242
Ge 18.072831088127522 18.29928191342812 9.265923809664491
Ge 15.518701322954707 14.139669495517564 12.636394109326396
Ge 16.91842982776259 16.318892006586573 7.87773125712732
Ge 10.31962709206599 8.232982335408366 11.457086805578301
Ge 12.045470593343405 19.222197131756648 14.124749088968565
Ge 17.008261224868367 17.83037354143981 13.73177917887192
Ge 17.087531079912587 9.558059445611255 12.992975449552414
Ge 9.314694591571476 12.397430161315532 17.43872394637317
Ge 16.413179846351134 14.858399615295248 10.051482881670372
Ge 15.450437922212258 14.599432546068202 17.342842755304552
Ge 13.827855525522974 19.20519216332531 10.63101477171946
Ge 15.656685341329366 17.528134522140167 9.909506702946985
Ge 10.30015834259265 8.701165485597667 15.429847343678365
Ge 13.591749804568066 12.91078324873618 13.758613404719878
Ge 10.623166854084472 16.835850837165935 13.34780691697399
Ge 9.566854693698689 12.288413124834735 12.574805527033618
Ge 17.275066279687568 12.104841410041953 9.409377293222526
Ge 12.819424912703314 17.39665055838766 12.107070656412048
Ge 13.635998087200855 10.463104780203254 12.60133323897842
Ge 14.880824794507364 10.455938811595793 14.970730363863785
Ge 13.719255259271723 10.194835400026033 17.251327453993834
Ge 10.153868975280883 14.813904861746499 18.075441839002586
Ge 11.267773378472471 10.813846628185969 16.66361795844382
Ge 9.791754502215234 20.30167864114556 17.382887191296096
Ge 14.242628304920414 18.995102800911898 15.774018397578896
Ge 15.564443690435088 17.35469986915711 17.532817291776595
Ge 15.931614785486484 10.14272897574999 10.639269771007916
Ge 19.26383482766373 12.780632577577318 10.996648247351043
Ge 11.210962161902588 10.634003284706989 11.402792031327612
Ge 14.093277010753594 16.176134451328302 15.717088305181393
Ge 11.939398362745907 8.538461712235204 13.463232153537914
Ge 21.135710636552748 7.93788375864019 22.15352440451459
Ge 14.820165530425179 16.46936873321107 13.321470474181277
Ge 9.090662251060428 13.96552263783794 15.423941444426008
Ge 13.985384588415291 12.678021036447129 16.39535574536021
Ge 9.513673962899398 18.645294132358774 15.387879130651823
Ge 18.732508374526983 10.050216419900728 10.83299525695167
Ge 17.185906756690663 16.233031829298756 15.802503475854275
Ge 11.184467926772916 14.155359814994204 13.687762519722282
Ge 19.180012758463846 11.272150642958346 13.270614462732883
Ge 14.830459983144813 19.240824619530017 13.112986347966324
Ge 22.62395850051144 7.197758551884175 20.388005403427005
Ge 8.671893247759815 16.275113628350365 16.52598985704515
Ge 17.308448693750368 11.31654303014739 15.363422374246522
Ge 11.808786871180374 20.48567273911886 18.739402401064687
Ge 11.671637939220432 13.723445514067402 16.36246625546185
Ge 17.57018792522481 16.83585607894359 11.42960968624714
Ge 16.948958536273402 12.099188707866093 12.043406407119067
Ge 11.407444567305438 16.475151170036856 15.89221819780572
Ge 9.193989955163033 9.727284113850747 13.27381290659634
Ge 11.858929594111263 18.763839819040857 16.963584394455165
