52
Energy = -209.98668076 eV
Ge 10.627326356329867 8.910348570682793 4.191988270088549
Ge 12.582769197197393 8.058969892597641 5.969823386484213
Ge 12.375608629460594 10.720261194119487 5.652108518073875
Ge 10.109218834956105 7.053016539866835 6.086530423999657
Ge 14.867863215093662 9.69783286546661 8.086038308173281
Ge 15.534693297550916 12.137860431238783 9.501239388329838
Ge 9.822438279642222 11.470163078352018 5.225275278064465
Ge 13.076806150402655 11.745300177664879 8.100123015195097
Ge 8.305529639715163 8.972580710111547 5.476187471109929
Ge 15.778591168336657 8.222390423640254 10.13470059209761
Ge 10.546149964070258 9.47634125198361 7.1000206099838765
Ge 13.015078368711535 8.007470523846967 8.81698959209258
Ge 16.273729583376944 10.377577787398923 11.869834312296371
Ge 11.57231526517251 6.202648238340885 9.982558952610406
Ge 7.80336002551957 6.893113491914731 7.543593344747022
Ge 9.549979672534306 12.971958907387894 7.601517748178514
Ge 13.644263065033515 14.038334741821439 9.337058523858556
Ge 13.723531246097487 10.208399582851419 10.652152942191105
Ge 14.045850744978024 6.278652615467992 10.972657669510749
Ge 7.146012649391841 13.498327983003703 8.747874142668872
Ge 14.68438880098833 12.807038791773907 11.884718600384659
Ge 8.655371355658271 7.830612223449727 9.82699798552829
Ge 7.3380590639019045 11.352099570148045 6.76877342415018
Ge 8.942679419902895 10.691360683259779 8.987758617058118
Ge 14.7056872219868 8.316542437925614 12.689328036020617
Ge 6.783539682736734 9.219634618403997 8.23840914971005
Ge 11.22757925861139 11.85953956932593 9.85246484934768
Ge 10.95211797355997 8.962449913997082 10.38186123444532
Ge 12.06181205684959 11.78795639870246 12.410345536415763
Ge 5.37602085782224 11.318848002473928 9.347996825206987
Ge 12.568813124085933 14.402886925041265 12.02516758405798
Ge 11.72850438957119 7.333582023525415 12.310268174762038
Ge 12.289492521515514 9.551989796831787 13.623626824700233
Ge 10.971749020414466 14.441403839936 9.571901838229005
Ge 14.5164853827544 10.93626759011312 13.908641045676056
Ge 7.697410232587397 7.042707711224987 12.244940405042518
Ge 12.420145022152528 13.408836384652306 14.594244920386283
Ge 7.624556936934069 11.935941572754151 10.906404113579066
Ge 5.926580627739451 8.671359229229928 10.733234641610727
Ge 7.55203500075967 14.74867592127293 10.99561885797607
Ge 9.222340785008234 9.40780021836979 12.828638980573926
Ge 9.393417189452283 12.788405363322079 12.791846112949205
Ge 10.366245017005225 8.996076338207741 15.359388856862363
Ge 9.731240247378405 6.8822824862766705 13.912037604069733
Ge 9.944117084461087 15.277080406207137 12.000715558056667
Ge 5.328048168839416 11.082099752614724 12.006053117747006
Ge 10.086375718322316 14.733269398739191 14.630862979055864
Ge 6.53372881748832 13.288342601606269 12.947345758967234
Ge 6.576403528737469 9.155191319310738 13.437901440449354
Ge 10.462489717224406 11.948262276671556 15.42758203015166
Ge 8.099950607760972 10.320079441139695 15.276952455202427
Ge 7.980945359761151 13.03186601522327 15.178862993279399
