5
Energy = -17.50161238 eV
Ge 7.556163528134099 9.10320329662634 8.260142637395811
Ge 9.425066278810078 7.325104870479969 7.616621677163201
Ge 7.372471146027881 8.55939016344698 5.8340694699717375
Ge 6.929933609880459 6.51753024038921 7.196524447572736
Ge 7.285521020958561 7.021938957973062 9.621312332940388
