55
Energy = -197.82870937 eV
Ge 4.372701040792493 8.498374468546348 10.925755182479275
Ge 12.24375487284075 16.089267934570188 11.707329744574798
Ge 15.49124317703895 15.548791935788069 9.959565627530116
Ge 9.28577904499292 13.149785672583816 13.464394859576357
Ge 9.37394734076173 16.962412526251295 7.721973193988706
Ge 6.298441152024329 13.312428917951147 12.686461832412448
Ge 17.788956640175964 12.593797117727139 6.558341444351398
Ge 12.801399329707689 7.710099801124463 12.4263574637475
Ge 10.658753921899073 9.143845235926204 16.182823364532695
Ge 16.380659583907924 9.136817841474617 5.558562731101446
Ge 9.341785440337254 6.958945299999187 7.573275365337126
Ge 7.2427781720211275 10.57345938724275 16.725687266172613
Ge 7.524038685549639 10.088646651230873 8.865713359757024
Ge 16.621280733812274 6.88270181829447 9.625995722989416
Ge 10.970108322865421 6.211742209115872 15.49752311083744
Ge 10.313459743405728 8.949467750629237 9.650142671155544
Ge 14.53598467504922 10.939605408569946 14.90584787185004
Ge 5.209854611250658 11.329029376653414 10.596627975430774
Ge 6.508891501167786 6.401831110624324 11.504000617205849
Ge 6.511347282769206 9.511264044378034 13.976630406485993
Ge 13.067461031813838 7.5357960155329815 17.258763280044136
Ge 15.754568929695 11.590512312536728 8.544803814867322
Ge 6.929631856076207 6.6602417567691425 15.107888679154108
Ge 7.595680842093947 15.91575950876877 5.484810480158609
Ge 8.883806175002315 13.302538320168285 6.475288010404313
Ge 11.60489517999192 10.480725348333472 13.138155987192354
Ge 12.5470267731872 11.44390222988425 10.388171937393148
Ge 14.651787825299465 6.626812574539549 5.428931849730888
Ge 15.43766389680857 9.00670407450722 11.413136041007013
Ge 8.838095592315565 7.038638050780726 17.496204304988783
Ge 14.647548443055326 7.028193151270029 14.710952572730589
Ge 8.819644129187816 7.839976260200245 12.933831758004686
Ge 5.511285583960274 12.904765709320813 15.659308127955436
Ge 16.964456168029596 9.222671668897492 14.103524250823494
Ge 14.765000155888337 12.52019375544081 12.312244210941008
Ge 17.814977279036764 9.402666144005732 8.211928396801543
Ge 17.928965488123 13.622777293121324 9.377097923687568
Ge 16.981561826178364 18.03186728940959 10.652393601484736
Ge 11.456887991208355 14.715735948608842 7.396339974416408
Ge 15.663335014419085 15.712721533065267 15.013314729759417
Ge 17.29642645515233 15.607053431121258 12.430166243054913
Ge 13.072777204014264 14.381905391720336 14.067324165482384
Ge 9.93647802500692 9.707241520475105 6.704975257124759
Ge 13.881595920725218 6.705963873126032 8.366353547203188
Ge 6.254123577980152 7.319102263898264 8.602171666638192
Ge 16.92598131353935 12.964511446478657 15.547753052357933
Ge 9.74940855105035 16.237220788754342 13.569656827707254
Ge 8.42866701966488 13.346458668903303 16.40074002205604
Ge 5.757056340739421 16.671446708035944 14.131641455315133
Ge 6.394051679508729 19.215430542916824 13.067238334582443
Ge 13.470540522015666 9.163739810719703 6.607807093003286
Ge 10.712222896574076 13.896905291234885 10.220937891763525
Ge 7.092627938609676 14.991960009164513 8.302949779359496
Ge 17.854792261444793 12.088684231037227 12.792413370064102
Ge 7.489485968305522 16.76254369664411 11.623452679299293
