51
Energy = -186.37371706 eV
Ge 7.265975562274048 6.928127243955162 5.270632196215818
Ge 8.929295163648344 10.991527412025214 3.709470122365134
Ge 9.713924411209202 8.590930541468243 5.383495523355934
Ge 5.389604295528507 13.214531295258084 6.647136820245934
Ge 6.328172475657279 8.594618188427791 7.9040591118830745
Ge 9.042764483594938 5.026101287046445 6.839804883724633
Ge 9.055327664387518 15.038859189176314 5.245705243579293
Ge 8.308744059520565 12.295140588669478 6.3952115076351035
Ge 4.758812806217924 11.21500999557756 8.837536387009575
Ge 11.911836373821549 11.629404059010747 3.747291058432062
Ge 7.10280020736302 14.472634930203315 8.905877998883605
Ge 12.068946431639853 5.8130461790894055 7.073754019244895
Ge 9.033796067505715 6.52827662949934 9.445495742104002
Ge 11.456549496349092 4.522609923647328 9.787261803328434
Ge 9.158057067194568 9.660962872538846 8.43992362840573
Ge 13.57497524206895 10.424676659681763 6.126870749178721
Ge 6.105797643059073 15.633135431592217 11.603780883918159
Ge 6.14972366022867 6.901021351477594 10.527519213910129
Ge 10.41383409296991 15.120186656742426 9.450262451557776
Ge 8.65895456961149 16.86698747574131 7.65785651444424
Ge 12.403777858729523 8.605802111540731 8.34811979574228
Ge 12.038653850468226 14.371141865072026 5.112560789136751
Ge 4.897714164549132 10.947116009042409 12.505071239639898
Ge 12.002909808446585 12.615931184119649 7.585446390791307
Ge 7.2670837248723235 11.453130609154433 10.52433904609649
Ge 15.291187618689973 7.504458606841093 8.833071680053912
Ge 9.023287714259723 16.53424238775168 11.851257693516958
Ge 14.345411169702727 11.439207320894187 10.565306732912928
Ge 6.264233326591376 13.389059690729574 13.673401293340428
Ge 13.091754572592224 16.071092080732292 10.593932327321964
Ge 14.475063857101446 13.967242482783123 8.795681720868961
Ge 6.025069245056289 9.070300245082137 14.65736723538625
Ge 12.14235464087003 6.840239289468774 11.637610765360575
Ge 7.984141643968983 8.55912924154053 12.382299669004436
Ge 9.121002655385299 12.160604386386881 13.615829681742465
Ge 16.878997214992644 9.876644575055597 9.974738112619427
Ge 9.647386111369174 6.043970758492062 13.211638732192322
Ge 10.180142092448932 14.97835245468647 14.245606732434945
Ge 16.136690627815643 6.113865081017728 11.470137479269475
Ge 12.148256176344903 13.720688682923154 12.263462712125587
Ge 15.131501015036013 13.381697752643989 12.844140451323218
Ge 7.84505235155466 11.009705942794627 16.168851767352884
Ge 9.370509714945937 8.697113642729406 17.44666334060968
Ge 13.787384504074387 9.586043625728916 13.5434563403695
Ge 13.908442494448622 5.135417109465348 13.328660331200183
Ge 12.049893287799556 12.066755778395024 15.856227571989903
Ge 10.877072023870788 6.486652327659825 15.938494559734911
Ge 16.671811048666598 8.768397482191297 12.847315385078936
Ge 15.035975601161867 11.621901735300222 15.365008170852018
Ge 12.202144910519666 9.671440848761494 17.47031790018765
Ge 13.892657032549602 7.302966986025651 15.562972258407827
