52
Energy = -210.71548873 eV
Ge 5.825255653519294 9.789666003206664 11.313437152351543
Ge 11.452097927732984 7.794974403090717 9.491213680825561
Ge 3.6263538987221544 12.243002078786418 7.183131401723558
Ge 8.899751173415188 11.665561490841466 6.307719099830796
Ge 8.950172787107505 8.340070041122383 9.109942319130417
Ge 5.843602221703109 6.246596835629289 5.965288437288665
Ge 7.908451819258282 4.54975679289617 6.271874329902114
Ge 10.036163879031852 12.229363996190301 11.91373241098851
Ge 13.770710878397482 11.862147263863505 9.5060425545113
Ge 8.94009747125129 9.150419414475698 6.751399052809313
Ge 13.254863308357553 8.38593059749002 7.543253566659509
Ge 10.336648530632955 5.295788825802302 5.613546648070776
Ge 8.373245939019995 10.343047677267501 10.673609236039747
Ge 11.317425945121975 12.183820242576127 5.53095991291183
Ge 11.430058454489046 4.989675004924199 9.609144661309571
Ge 10.661889836594224 9.77346238525314 4.598935082489092
Ge 4.867271914141578 10.45751572229149 5.416596881929381
Ge 6.138586176273683 12.759730423842734 6.353103961453867
Ge 7.925502621277494 12.211322206854645 8.702301934224
Ge 5.3629328020118665 5.60485348153012 12.6232062132624
Ge 3.897758471561851 10.939286244071235 9.658968499207685
Ge 7.314207323843611 10.915053308052055 4.339284258779098
Ge 5.305800181536202 8.265939687439925 13.441756408993683
Ge 9.649687387203212 4.774579463556457 13.636654044277607
Ge 7.333056148530213 7.441082082637606 11.409038630768801
Ge 12.97404441892949 6.543237244110164 11.336695672884098
Ge 11.81579917391235 6.423326584944353 13.778751030397373
Ge 12.271807344317082 10.79459085597897 7.488418325866831
Ge 7.632335736325807 6.168523039113966 8.222306210548597
Ge 5.9650904298090195 10.423011160038397 8.042542611339249
Ge 12.010195040494025 4.186274423205427 12.15414348106694
Ge 12.130545874397942 13.573761391572775 8.245413488589188
Ge 10.989331098726174 11.322495741098312 9.606001140826956
Ge 12.907397484250765 8.382451880073098 4.741549892114315
Ge 6.89111053632193 5.068382960626414 10.49384707398542
Ge 8.286532172792613 6.143000825992863 4.0085121746369685
Ge 8.76376153977968 8.719289141090357 3.076568758672425
Ge 7.11348259908905 8.389833099869202 5.2904530125459965
Ge 9.906212127650518 13.818064039124005 9.762779348318427
Ge 12.383047072777376 13.686082929303243 10.97717391754901
Ge 5.3929020958500224 13.068779397584757 9.031707563861467
Ge 8.018115212995815 9.085320094182407 13.320211126643377
Ge 4.679995053311451 7.415031448463341 10.770014994629618
Ge 7.45717975258168 6.605836661738688 14.011446850451673
Ge 3.461056914159329 9.456924523820312 7.528258317499868
Ge 9.35876397449768 3.9392395494307713 11.111066211842145
Ge 10.995372385018642 7.626491322193204 6.425897082520395
Ge 10.021377350843693 6.3691737866124045 11.535243466721525
Ge 12.462596798936499 11.091787201738558 11.806606381816232
Ge 10.908303191992198 7.009164336479374 3.6653576558820586
Ge 11.096614587494775 8.606159574370265 12.221168272193632
Ge 5.453328319865204 7.6390121514075116 8.151616594712047
