5
Energy = -17.41627709 eV
Ge 10.534920019169137 9.958367319568316 9.552464428015403
Ge 7.189675149681689 7.763893642249363 8.16959772666816
Ge 8.634379852636792 9.909969058172095 7.745471246281702
Ge 9.77255869807534 7.63756994499277 8.60191238241139
Ge 8.176811280437292 9.038545342843975 10.238899216623468
