50
Energy = -183.34100157 eV
Ge 6.978784079250877 12.14887989169969 3.545865709906624
Ge 12.411107956196997 8.549118916483001 3.8293921835737867
Ge 8.270842334708203 9.181065062187656 3.9967351449936586
Ge 14.557267471769162 7.585364950992395 5.776905734399458
Ge 10.112576351017612 6.553049224038008 4.137510473264103
Ge 6.62765511335588 5.64698425551952 5.24169028449496
Ge 11.468030547362233 12.840317822704892 4.385028008912443
Ge 5.325114408758146 11.658831914654378 5.936697946679455
Ge 14.668961642382701 10.654770618319882 6.055346554578759
Ge 8.81215047932002 14.35830864678741 4.579305334433342
Ge 3.9237467744540537 8.232135054731597 6.33388053926546
Ge 10.64277257655579 10.18928886787666 5.705410071523493
Ge 15.735712353324807 11.773710092528582 8.689110077008444
Ge 10.090719903247768 6.433663237245595 7.188059467632684
Ge 6.962496281240082 8.445750947682082 6.667548671689175
Ge 12.989506185021805 5.43746136018537 7.292346630059806
Ge 8.855212540830731 3.8088972594502444 6.257534215073558
Ge 5.082458418983331 13.450659913532174 10.053196321529178
Ge 12.636774059257457 14.254049981508572 6.892514032724228
Ge 13.981738731417463 5.780695292467024 10.185056603441236
Ge 4.271562987781875 5.268815772541628 7.140716958665126
Ge 12.76630933186705 11.529011547534083 8.272645441659673
Ge 5.902745351387713 14.326832157780002 7.25334292363693
Ge 3.3536279744622006 9.635156081281183 9.039788318865009
Ge 10.212258981889175 15.486314867002855 8.334586455463622
Ge 8.654235261623379 13.128666724462347 7.308632094605764
Ge 7.179627766748466 14.49914564703721 12.009315795119695
Ge 6.092980887988589 10.5892206352651 10.008591276701425
Ge 9.356136246945319 4.910499974145949 10.527862356032376
Ge 15.69322299038104 9.01942142321183 9.999717562312107
Ge 5.889693797842723 6.251477666637326 9.50594401213769
Ge 8.3432436411473 2.482354997015829 8.999114621146056
Ge 5.817235563446692 3.3729043498131874 10.500244854400377
Ge 3.2820998861175865 7.087927007069366 10.758332160017167
Ge 12.722921998955302 8.520727591455241 10.308876825377062
Ge 10.161060833940208 14.425340731930527 11.238249035507394
Ge 11.93254641036008 4.345092785937645 11.963597973677444
Ge 4.463890966473647 10.888513482607108 12.567486738515928
Ge 10.477531366830094 11.421920051796706 11.065411004977413
Ge 13.233050046167484 12.251519115308328 12.13909571137424
Ge 6.674607615924171 12.328459403992339 14.150500578294544
Ge 14.313902603906598 9.457443157016042 12.696862056119079
Ge 7.666671185634905 7.90068106060266 12.362594570670021
Ge 8.009852624136474 3.3449272557243126 12.685546935501517
Ge 4.773511047600391 7.937082423546238 13.309773668183167
Ge 11.113278014695888 6.158445792402262 14.365677227353707
Ge 10.817208189539832 11.916946964817916 13.99567503328596
Ge 10.770564637531084 9.126923008967342 15.226315706345652
Ge 7.766550537374935 9.514686456241407 14.906325646492903
Ge 8.065646673818547 5.801942187235001 14.52144608335024
