5
Energy = -15.93578638 eV
Ge 9.92806812741021 9.947668264345394 7.660059716368425
Ge 11.712401784241898 8.211525446274585 9.327426093801693
Ge 9.323295658692052 9.50286694691577 10.5604074648572
Ge 8.050902971518536 7.651475103645863 8.46584165288247
Ge 5.6019279876756 9.290364122084966 8.617870056679545
