51
Energy = -205.0387202 eV
Ge 14.673884073510985 9.819027734799752 8.048523391790418
Ge 14.374335862582654 12.891233586950493 8.85425091602761
Ge 11.767247750288936 13.1537633114089 7.936686842958302
Ge 12.131175876799553 10.654230559987752 7.474146948268373
Ge 7.875079064167646 14.972350492129888 7.1475246184125565
Ge 9.472484718374176 13.019159151806477 6.411447291948007
Ge 15.310261561393162 14.253025159210983 10.928055804939865
Ge 10.025110214232958 9.178640935298423 6.9001232281661595
Ge 16.225062821748914 11.677511511328227 10.288694669401988
Ge 13.828983052486644 7.158739444805725 8.381972221965801
Ge 16.736683111755642 12.759633534688263 12.774048758121959
Ge 11.237717261797714 7.58539160120028 8.65136197435226
Ge 12.54654256733874 5.104638571143911 9.375069918459705
Ge 7.166714162125669 13.521316548774946 5.046111807495136
Ge 12.402407675252256 14.177512578067752 10.35574845781906
Ge 15.395714735776277 8.807355627856243 10.38051431657467
Ge 12.698757712112974 9.40696793255819 9.880134692484768
Ge 14.51301106279872 6.288244469935761 10.983435635815923
Ge 11.15039041163873 11.657398457002355 10.290765595233221
Ge 8.228622008761699 11.084216571006948 5.2235062834668415
Ge 8.145708172347039 13.632366426616978 9.416701205177302
Ge 13.764319925571975 11.848561400203144 11.590010101820342
Ge 9.206466188814934 11.262967568059805 8.484382875126583
Ge 13.302852709255504 14.190075813705503 12.91605961064975
Ge 15.968921786917978 10.239870345930658 12.742845003358758
Ge 6.596051999326926 12.349996348264801 7.226292512051757
Ge 13.135071979077605 8.241061147130802 12.176107252914168
Ge 7.287715834811662 9.624903526292403 7.4868925602694265
Ge 9.896159077155277 5.642448259580028 9.901020084785024
Ge 14.615897630518386 12.358501400714946 14.264070799031616
Ge 8.481378115106494 10.818593616606071 11.662900165910317
Ge 11.290627386885907 10.751599138476463 13.25596314461024
Ge 11.072521334981747 13.297495475586487 14.169310149028346
Ge 9.418417972058618 13.318563950429525 11.922159172595986
Ge 6.834292448520608 14.674436990676737 11.561461172218092
Ge 9.724221463381765 8.500567446847265 10.606800069529225
Ge 13.877248481329243 9.510387635122775 14.292778544840152
Ge 5.698921896959164 12.71015626706023 10.001276268031885
Ge 11.979945499861497 5.693718632509169 11.899754086850768
Ge 6.621993539688147 10.236908790524742 10.026988678367173
Ge 7.687910084929678 7.368072004898197 9.487602580544195
Ge 10.596827071876653 7.7286130555632395 13.020337867149246
Ge 8.437029869119769 6.487151872824112 12.077960940464706
Ge 9.113312402786306 11.83078160024479 14.939494667763089
Ge 12.510281084331535 11.342591373084908 15.575379166835884
Ge 7.228415739676563 12.713030093692522 13.35039691192496
Ge 7.841293410002764 9.109111245510753 13.510803438614996
Ge 4.7995820209491615 13.148075715762996 12.4662384993703
Ge 5.6910920502910125 10.581884019414883 12.642319553321762
Ge 6.1924720429160915 7.941870433129011 11.574048102191107
Ge 10.017030233131832 9.279260514053115 15.11562136335983
