52
Energy = -209.29380228 eV
Ge 12.068020956034244 9.393235114796301 15.292368793733353
Ge 10.448785711355578 11.198690250249008 5.484235850844053
Ge 6.984045038535769 9.849820091441632 12.735628967125052
Ge 7.454970348127957 14.464916544775676 9.982105009980483
Ge 14.8082687907531 11.86580690793441 12.544567325573645
Ge 7.82465451768784 7.597128275071288 11.764708311456635
Ge 9.2271097057753 8.807874283484265 5.97968640159847
Ge 4.44573686484324 7.926666645486545 7.692316334842945
Ge 4.819751441924481 10.879123908931202 8.808754559765939
Ge 12.146070972635108 5.050360578074324 12.56943856390108
Ge 9.083783905132274 9.957943065732977 10.72814320334772
Ge 11.811223272100436 12.856545982013937 10.583973877992703
Ge 11.55302946574483 15.121813718141915 12.572824379852797
Ge 7.127580372426946 7.1532045096841665 7.323710188984687
Ge 15.438437758999953 12.37764409084144 9.99368884410458
Ge 8.799152044683817 13.12630569692163 6.021771363627021
Ge 14.209332282414184 11.300566047880327 7.612211407725791
Ge 10.660796973415044 11.636980517841083 14.660783242948714
Ge 7.817688487982127 10.874334529660642 4.8275327338559
Ge 9.478720230586887 5.930000866575583 13.18740216311218
Ge 13.873716108638249 7.021452398896108 11.999864855785646
Ge 11.917857293818354 15.636191567242653 9.923182160298513
Ge 9.489324555139905 13.77589085311766 11.579701243850346
Ge 11.314526508407624 12.079119101219051 7.798357903295444
Ge 13.477800902251854 13.809678194132315 8.69344903859504
Ge 6.785508244515131 12.726550295062857 7.752698321131219
Ge 9.574892205483913 8.610724605752392 13.932984781065315
Ge 6.330290998724136 9.712107507023726 6.7050772354146435
Ge 13.981061310820692 14.60178581445124 11.411290084235727
Ge 13.926418911977079 9.358041209371622 13.341729426323532
Ge 8.79716251498157 10.879469498729955 7.692939236637184
Ge 6.5072765359829186 13.448243715435146 12.279148022016791
Ge 9.878191526040712 14.141274205256428 8.802612779729383
Ge 10.145768031906911 4.907341983621647 10.740075228908378
Ge 12.130695322317013 10.006238224019306 9.139747746507389
Ge 4.377855428882542 8.697977919159655 10.324739414256916
Ge 9.20059331374315 7.151339170519415 9.345031854869305
Ge 11.695058284522702 7.026256874850311 14.281893633243191
Ge 13.70972341048949 6.802938832251776 9.434915719112391
Ge 11.358040328096859 7.361874397212348 11.102105652668802
Ge 6.838570294333196 9.022548282891197 9.276620044551827
Ge 14.288046349315277 9.903090894398089 10.533481162131874
Ge 7.101329598175612 11.788717742854017 10.323291748443488
Ge 16.26283080474268 10.086310149215752 8.839469384968417
Ge 11.623135231791945 5.573640318308009 8.623657823539364
Ge 14.107215445825165 8.628909026879628 7.64257047804555
Ge 5.858254223743139 6.571797948454149 9.578706591482163
Ge 8.589740132079106 11.914856314855093 13.103119928766288
Ge 4.922379322878544 11.177408894452409 11.703398253565512
Ge 12.448164347203221 12.731966871849135 13.119429280968246
Ge 11.479381124501352 9.920019604473836 12.601517963082529
Ge 11.421592300145125 8.021275866194971 7.653464952679279
