51
Energy = -185.79995443 eV
Ge 11.918393541001366 7.887245847042469 6.529099280716209
Ge 10.148446646531465 9.45225710427044 16.45442644241334
Ge 7.562273114247917 2.9633504418444647 10.754030652454988
Ge 9.342379509773105 5.27008889349712 11.57111722698545
Ge 4.964927867109118 10.844443068669165 12.547817143596317
Ge 13.027963431148171 9.836840369740333 15.442900887805695
Ge 15.933168374304588 8.075933079700087 8.528389274363754
Ge 6.458680923412534 9.43946104606471 14.853743536785439
Ge 9.255591764239238 8.699220823148798 13.68459799378576
Ge 6.4120352931885645 7.083949525831366 11.337022152511741
Ge 2.8831570763036303 8.159009796295916 8.932842134041536
Ge 7.80090713402273 12.735154583316 3.3950728828938272
Ge 15.412399242195466 11.527317868299775 13.038627074954205
Ge 5.922184260809762 6.454597311098187 14.26282959965926
Ge 8.897574171428417 14.692445326236117 5.4592139038020475
Ge 15.354925490311233 10.47207834602727 6.706140110381321
Ge 12.64527778539532 7.707973908305951 13.389768244000061
Ge 12.33891820332313 11.643710607934095 12.891360850441247
Ge 9.861228141000375 10.649785983676665 2.5327383692374283
Ge 8.934536735707415 5.777520148863503 14.555836290881574
Ge 10.53717847730387 12.316066699749303 15.561565997549865
Ge 14.108941830593254 5.95496841863271 7.311554609682178
Ge 10.897326789433553 5.488729838381135 4.966124688748131
Ge 6.195610259955703 14.464511989218227 7.012144730281829
Ge 15.072936824527908 8.682126274231637 11.981128821289909
Ge 10.944178982054407 3.662038387302493 7.476344849747553
Ge 9.402456616566484 14.914394920742348 9.666475996454517
Ge 12.16687571735709 11.800107124599219 4.0979822137586766
Ge 15.464607278031835 12.191814179853623 10.020969750510423
Ge 4.915544550029822 4.566546684839956 10.73889045524598
Ge 7.923963955444527 6.2680450489566395 5.257067480527954
Ge 4.352161948980726 10.904744974114259 8.87530853341862
Ge 7.731206604566902 10.945971384187208 5.804593087521697
Ge 11.823671338646937 5.8238124365345545 9.438952299498807
Ge 7.906587360072221 3.960349309044574 7.920568026843605
Ge 13.576873912585025 9.95221147458703 9.19954976287893
Ge 9.695898805907287 15.074486194647672 12.698971674817662
Ge 11.453046592632374 13.439219426894748 6.594878630622658
Ge 7.080045535742465 10.90576988948986 10.297200601212094
Ge 13.060418319257888 14.095805722405474 9.826259371769957
Ge 5.87408557716935 8.093927815986708 7.249710098280644
Ge 4.879767314674687 11.887748125972205 6.029172566435443
Ge 4.293585801484373 5.591224323064343 7.893827542599094
Ge 10.697477853794803 12.180238014558489 9.300747901016837
Ge 12.736927524890447 14.658708337385356 12.815332464695397
Ge 13.733655550385004 9.228660641399689 4.468144228788935
Ge 8.627777574393912 6.906855362167857 8.291371486043886
Ge 6.553323457203133 13.912774742231923 10.020871131275062
Ge 3.5665072415043126 8.169900556236108 11.908288015036307
Ge 7.622491565435688 8.827282828226398 3.6297412217985587
Ge 8.574669021258059 12.303343681832002 13.323456597274973
