53
Energy = -213.19909547 eV
Ge 12.075364445566645 9.697344277711561 9.159009014545342
Ge 9.167194942081299 8.02949510455493 7.328994392188571
Ge 12.963215978736237 7.945626659415743 14.646026092261252
Ge 8.528736394272912 10.172917665181341 4.852139943140882
Ge 9.783645798449005 12.676828256661071 4.915319692630794
Ge 10.484628054272509 10.648946694875109 12.07898106066293
Ge 8.871627149544931 11.672332809574558 14.223319685411766
Ge 11.1575689781123 13.369609455344056 7.131348047328196
Ge 13.950379494890571 6.037020354144323 13.002574471828988
Ge 12.892851571913242 10.501366944720116 13.557516605774964
Ge 8.853695359239003 13.9603361477756 12.867382092706737
Ge 4.284571979200417 11.197069602143834 9.345916907435154
Ge 6.155261629366005 13.072674409016411 9.570815116687989
Ge 7.75642815651824 6.476149479248651 9.190537714458737
Ge 9.880785770281724 14.269206618029255 9.283219528349616
Ge 9.263483456016418 5.922899357332742 11.705497398605887
Ge 9.23453849376377 8.613523581868414 10.455061019882208
Ge 6.538119234896175 10.35761317150368 13.457638168931519
Ge 8.151784441922747 6.102933024162009 5.679880696079853
Ge 7.714255456415794 11.916693287618601 11.622895229382236
Ge 14.725369366904765 8.656601786119166 12.363151514071749
Ge 10.168540111483567 10.609821753031618 6.959751457657717
Ge 12.6786716539697 9.483776339423773 6.534667743417729
Ge 6.607323771683905 13.057481398596241 14.202606352616893
Ge 8.534103276015243 14.170305154482204 6.911994914372835
Ge 10.33632278594543 9.559856125068183 14.638361096148962
Ge 11.747806553347678 12.182435428421314 9.4949661949601
Ge 12.017379644357511 7.02652058924318 7.305092464145614
Ge 10.84316628465757 6.432671985647691 9.561729125019857
Ge 5.402904410040862 10.349864138032736 7.057250383435592
Ge 10.396332206172573 7.274379522083322 5.036695725064088
Ge 8.610448611468716 11.991532476933473 8.907218107937682
Ge 6.656529091108239 9.737059146661842 9.434855972557205
Ge 7.444840838057044 11.842276286073835 6.501779893859232
Ge 14.766201793910437 9.400809243539694 9.343166735409392
Ge 14.13329726731331 11.140588078225376 11.073022003652474
Ge 12.541032232218706 12.162190911771168 5.324737157559693
Ge 11.172071287356307 6.3130183463310825 13.62866761434013
Ge 13.86390514479368 11.4898830636142 7.687625578555852
Ge 5.106506015999177 7.289951305079639 9.136965468132741
Ge 4.943627587221171 12.131223809430784 12.06137195971546
Ge 6.6748657469349055 7.626452500552909 11.398117492653611
Ge 13.626293765739815 7.010738390811145 10.379759670841215
Ge 8.675895753744058 8.14666297388693 13.118952819545367
Ge 11.47693242030566 5.049211431812624 5.734573929761868
Ge 6.440972299674199 14.433447413437586 11.817979734952672
Ge 6.453140693612086 8.001846207380208 7.077761074360026
Ge 11.978454870956215 8.306921917824342 12.020321276085017
Ge 12.22228238904507 12.76945737947986 11.966789189069768
Ge 4.547616856325443 9.30127256315611 11.161666655447316
Ge 11.10055095047955 9.78347508655924 4.353961593426426
Ge 12.074273354363736 4.885104673438832 11.454723142100706
Ge 9.59066713643658 5.00903863006981 7.542106037932941
