55
Energy = -199.42965165 eV
Ge 7.642564315182867 6.569890596627935 10.847035656151123
Ge 12.847140994073868 3.000057178596901 12.602900181872718
Ge 14.669939696341757 7.82469352973049 8.608334620348217
Ge 14.252676422085772 19.28669370611564 15.768905848307817
Ge 10.963053170891317 11.997426802459938 13.877720916488702
Ge 8.74885581772294 14.921385492912302 16.328826349671033
Ge 13.171403543257547 13.584007958274686 15.327175371269965
Ge 11.576970923505167 15.681565096189095 17.01963045525457
Ge 14.083414409848855 4.705598899061515 10.400501131638137
Ge 8.127511376378747 16.134598831513152 13.62063062834843
Ge 19.947359678075564 10.228885274322721 11.105239705765005
Ge 10.75255610427604 13.813884170730628 7.3216639247988855
Ge 12.276135099704966 9.116669814243954 17.55150523320348
Ge 16.82040192964965 16.33344364624315 13.166384921368204
Ge 4.802639674208687 9.961548918412635 11.42575991014449
Ge 13.805431884802546 16.09099078026018 13.088559098736836
Ge 14.852822564454103 13.10292654550613 7.587089226145192
Ge 7.874120703137498 9.646726689066252 10.907890665263773
Ge 17.303017855307377 13.307072396821617 13.457037454032294
Ge 14.90308888887409 8.955460671891139 11.469870787577294
Ge 13.810754081461143 5.876972897059163 13.183588027374197
Ge 7.51994993826908 16.32852137194643 9.81879929161129
Ge 18.81356066178514 9.30646214179148 8.442209746260161
Ge 12.912748835128154 9.761469882406256 14.608592651479746
Ge 4.636548451690989 13.010756744341684 11.452531637790058
Ge 11.297563469576623 18.45624281418391 15.824453522164653
Ge 9.69762279599684 7.858277501536662 15.00422327926486
Ge 10.983644898540344 8.605763487789513 12.376059463769078
Ge 13.576260951942151 11.846707035029219 17.911665546851125
Ge 10.067396972014738 5.721608074159775 12.650256117170324
Ge 10.662571584604112 11.45454957768683 18.58035151588741
Ge 15.330763047388503 16.408484587329756 15.811582973224095
Ge 13.887687289422654 10.233436583891772 6.750865976699494
Ge 18.72332501413524 13.034060082925267 10.785363634934777
Ge 15.818879189192778 3.6106838181205014 12.66161445021684
Ge 17.85640917056579 7.996347024362726 11.001160533514474
Ge 7.293944545630129 13.267284899557955 10.016300627994767
Ge 11.954344253573673 10.337181274206369 9.226020143491654
Ge 10.141115816350156 17.575435716543385 6.2139702863640105
Ge 8.16047287038069 15.361487942453467 7.023813654725836
Ge 8.92618793845605 11.813146721202164 16.10416511378084
Ge 11.591308933454341 7.343091984060417 8.720757354342167
Ge 11.061504096581395 9.002397103101785 6.137209573424851
Ge 10.889964588219717 13.584641556679331 10.357574667007395
Ge 12.702203051438499 18.94582546991439 13.147770350573671
Ge 14.6116754945104 12.043246070178546 12.549922851340652
Ge 13.97763083757695 14.09413929901284 10.341033747106797
Ge 10.275515877787832 16.467063093115723 11.201155908455966
Ge 9.377440310875246 11.085136050113924 7.699661096856425
Ge 8.965143963300815 19.747706161964697 7.880598148123262
Ge 11.387771853872508 18.50746758675725 8.841536733063949
Ge 16.583690312518833 11.30214878730965 9.40335324087234
Ge 6.800925410756783 9.717773232635492 13.7582581713746
Ge 7.233987422496162 13.29227611322097 13.131518374115561
Ge 6.993831359588008 6.68413065529223 13.844849843249113
