6
Energy = -21.62532967 eV
Ge 8.12528245526843 7.569571315148486 8.17502224934788
Ge 8.457492967235924 7.848355873557468 10.7038049472383
Ge 8.334818394516947 7.228581239732131 5.823032158720162
Ge 8.879717265519425 9.892949566020649 9.067913017521152
Ge 8.635765208162653 10.258749428923414 11.40880442422048
Ge 9.58305586613251 9.22582626618401 6.698567503930321
