6
Energy = -23.17185818 eV
Ge 9.38145337951467 7.520968997929897 9.747467612240305
Ge 9.638171099006946 9.609239790763992 7.743820077909967
Ge 6.780261356511925 6.732704171880973 8.690665096834822
Ge 8.834566033685782 7.2321726744407515 7.263298489172808
Ge 7.5181573687085 9.143318826725602 9.084324218428083
Ge 6.998568086340212 8.86124531038295 6.6130957945360676
