6
Energy = -20.36649497 eV
Ge 10.160321116948678 8.786485887555168 6.928411344767491
Ge 8.063156760683274 9.733661853822662 7.825558224466115
Ge 9.758906164835144 6.397633850163546 7.687953409591269
Ge 7.302848106552657 8.874665252690203 10.065392430048396
Ge 7.566584348056291 6.73360277913578 8.772430343831225
Ge 6.0055177657724705 8.304158126790806 7.577196486149338
