6
Energy = -21.59957392 eV
Ge 13.519568805134636 14.492148861869103 12.192775668333804
Ge 11.472802928808353 13.046066975795398 12.384904536678174
Ge 13.83937656491082 12.539372572870477 13.51102569591561
Ge 11.905502733699935 10.90290414888361 13.817507955527665
Ge 14.240132891644572 10.39863172847896 14.9886929880419
Ge 12.19174979890277 8.939943802469415 15.108423221551801
