6
Energy = -23.17150858 eV
Ge 7.48551511496731 8.7316988941179 8.949802319008706
Ge 9.114425550794438 6.7930151501040505 9.140588701423868
Ge 6.306947732465161 6.489271650831756 8.491630378207718
Ge 8.170026730615978 6.869882266635321 6.772282506557818
Ge 6.3826517519666774 8.699497049389254 6.652913181447782
Ge 9.294057716650668 9.095813047809752 7.202286410099148
