6
Energy = -21.62038339 eV
Ge 8.049588992494424 6.849321079214177 6.864561624713516
Ge 7.732456393247538 7.178044105756784 9.337348738024179
Ge 9.192341614441128 9.08835343984456 10.287250926707133
Ge 9.101269918747988 8.800592067695998 7.734179179486821
Ge 10.187991202940417 11.060243682752143 11.175267159105022
Ge 9.828689154940953 11.101675162457395 8.677373620632022
