7
Energy = -26.76441991 eV
Ge 11.006683002756601 7.370212641737124 8.755812644462845
Ge 10.675039994410715 9.003629000627884 10.597529828953252
Ge 8.615983949052012 8.732604250175454 8.784220053107926
Ge 9.714316331700047 11.16379215013682 9.51570081790424
Ge 8.250200735023336 9.345209951246966 11.344301299204007
Ge 7.242173411701221 10.970494538718349 9.595927748326194
Ge 10.834505356224087 9.735225399714691 7.711789217527845
