7
Energy = -26.7647708 eV
Ge 7.218840133485475 9.296142618103584 8.450802826164024
Ge 9.726968981291197 10.669990068870325 11.601438447182659
Ge 10.991986333675236 8.615454878197701 9.869347704969995
Ge 8.473923909048494 8.717675664261156 10.517904941222175
Ge 11.917626560276467 10.895115795840127 10.229049615795839
Ge 9.544290682014951 8.37597545817274 7.769316473508657
Ge 9.49439113448047 10.7512661219327 8.95382442220086
