7
Energy = -25.65125999 eV
Ge 7.87757955340875 9.74122787407539 9.01145718063275
Ge 11.99528751113366 9.427350619617467 9.632583116029743
Ge 11.648838142282449 8.47372672563464 11.993787893655853
Ge 9.553656823671368 8.70791975100703 10.564634126217385
Ge 8.391163037624736 11.884552138891227 7.799839993127502
Ge 10.63841947286256 10.831931726240057 11.866628388885196
Ge 10.165006654282495 11.158836184358831 9.400605128185795
