7
Energy = -26.76463047 eV
Ge 10.468678026705614 9.56230911745757 8.754857199048399
Ge 10.762288305468795 7.0726441221350775 8.085204499014647
Ge 8.825761203879377 7.244784674108034 9.625576575052735
Ge 8.055010612075005 9.735317908517679 9.604089718854096
Ge 8.601500748454443 8.514063746967588 7.189866953154015
Ge 6.541993216506973 7.434055846947757 8.482486760782804
Ge 6.3413454405650755 9.930911824710186 7.812470463459818
