7
Energy = -24.73034109 eV
Ge 9.376894291060339 9.594216910811369 12.543767142806184
Ge 9.47577745639481 8.38790169997458 10.156140614781124
Ge 7.629197976179772 7.891975077149184 11.811054318189015
Ge 11.742908503078725 11.435225058296068 8.975312548269738
Ge 9.582168492535333 10.02825783900163 8.131858694071228
Ge 11.409374493127897 10.727077111074854 6.64430470019054
Ge 9.869968341027837 11.008179268350773 10.58740504132928
