7
Energy = -26.46271351 eV
Ge 6.135195789218175 8.605070264994339 9.849041095464493
Ge 9.17814004797933 6.778870768327618 6.846213697550042
Ge 9.91736304499259 9.197624927891159 7.11487154749247
Ge 7.1513684679992755 8.519488990143255 6.48032659373983
Ge 9.491670193473876 7.481775605979049 9.431459841820798
Ge 8.036308808803236 9.623040143746088 8.750662038269724
Ge 7.041323133437734 6.694694421696575 8.515241416887925
