7
Energy = -27.82479192 eV
Ge 10.497193246668685 7.784261924866542 10.232282348620137
Ge 11.131994364721306 10.329284832572098 10.700608431193945
Ge 11.279398677213097 9.369428355702402 8.220948938545833
Ge 9.004831336963939 9.251673389973813 11.90425912849451
Ge 10.275040857290586 11.810199061709188 8.657286615447926
Ge 8.891135598923823 11.74037091889693 10.942186037908458
Ge 8.85640648304497 9.650610965120087 9.278884092499435
