8
Energy = -27.91977972 eV
Ge 12.975076124788314 7.999334715307236 8.697546096349786
Ge 10.735508499726492 9.814002124704349 7.9491812469909515
Ge 9.021105075230256 10.382005846683164 10.660465206499275
Ge 10.334951762695997 7.297233302373499 9.761099610350788
Ge 6.6411006936511665 11.242937990195626 9.003427551746265
Ge 9.042881553973872 7.493190625026102 7.012445824254929
Ge 6.428979502395622 8.831718312010294 10.74386979105766
Ge 6.2895915086710925 8.49098967050823 7.700733592417998
