8
Energy = -26.84773753 eV
Ge 7.646825841836766 12.083883530642046 8.188067071087014
Ge 7.673333151640038 9.594964732460712 10.246608050466076
Ge 9.758303637863339 5.861479921553593 9.374713184967106
Ge 8.4088769251682 6.836058205644921 11.65107544938222
Ge 8.649677134062662 8.16495857321602 7.706265603059893
Ge 10.525522822449641 12.44811539406653 8.769864421266155
Ge 11.333596248939198 9.611792670393111 7.908063495492459
Ge 10.642611132537422 10.12866583800334 10.798791069121808
