8
Energy = -30.35209282 eV
Ge 10.812244950286606 10.154477954085776 11.947223791749664
Ge 6.99727072679482 8.008300262353625 9.680686147241165
Ge 9.078639769993199 7.3821474819688655 8.514551777886279
Ge 11.441189415681226 9.646494007851878 9.311884326698305
Ge 8.974719780331986 9.209270035852947 10.572166632993573
Ge 9.474466191228009 11.613540595598103 9.719872651926826
Ge 11.785353408498832 12.038408191019421 10.450707004299387
Ge 9.335265136899404 9.843998895140965 7.769141196485628
