8
Energy = -30.77236435 eV
Ge 9.316280298325127 10.020749193864827 8.596587331276037
Ge 9.913438363072583 7.296670015719958 9.333138734203862
Ge 10.759692450811208 9.174418103797752 10.819678032235641
Ge 7.175941567034997 10.928753035440195 9.825895050555205
Ge 7.966813504892058 8.651629691843514 10.613319925947375
Ge 9.380610295163626 11.662456158662382 10.8456471348109
Ge 11.74075833507914 11.186356122555907 9.620469823909707
Ge 11.609150280367398 8.961981496794884 8.202288109192855
