8
Energy = -28.53685958 eV
Ge 11.2460681666682 9.261166723572952 8.0270959565371
Ge 13.80154670369431 7.976116470357626 8.975939525696601
Ge 11.563995638201092 6.269961520655019 7.926008440884064
Ge 9.142412053138784 11.172910707008649 10.63106155425602
Ge 11.272024819067951 7.659382094639887 10.57133809325287
Ge 6.9633973451167614 11.637465638329283 8.600985238176193
Ge 6.747725513509196 12.914870255803194 11.308968533975428
Ge 6.433186283062647 9.935103583539929 11.013256657023184
