9
Energy = -35.08042366 eV
Ge 8.9401251543697 10.062109977811119 7.610746819116015
Ge 11.240444226048972 11.03303734108545 8.391758753486043
Ge 9.742578497925486 8.98226800119213 12.094516808997358
Ge 8.954177149925702 7.456870656843579 7.880554580498922
Ge 11.30790633066111 8.581508190080113 7.373489038541451
Ge 7.725217480842933 8.783646816363492 9.896695458406475
Ge 10.476864087962342 8.788377351454328 9.73029031180196
Ge 9.216181784124347 11.233657567592193 10.220366430684592
Ge 7.59273601107099 10.247147057670565 12.006237208653662
