9
Energy = -34.97807201 eV
Ge 10.02210038473268 9.607119259232386 6.9579506175815
Ge 8.299520050941506 7.525728838297593 7.46748952338638
Ge 7.3079655031451445 9.805472267730746 6.874394904998893
Ge 8.236054233846879 10.687319685016325 9.114867002610131
Ge 10.543875127716028 9.137537765592427 9.813593428087186
Ge 10.808902960294368 7.365244571517338 8.144655910153723
Ge 8.31869143454572 9.314091581875658 11.278625461074443
Ge 8.884322167535117 7.026468440527674 10.124347585943468
Ge 6.633579395740175 8.554709926678344 9.266619217207285
