9
Energy = -35.77203864 eV
Ge 12.207104438068477 10.683139560993446 9.892685257223794
Ge 10.966046848596681 8.74842584286036 11.391812322290379
Ge 8.664250670403508 7.991617599530281 10.078656214637752
Ge 10.813502545131184 11.141872898687442 7.748991618293151
Ge 8.550160603801256 9.82551319737603 12.11928186064098
Ge 11.029843857602877 8.562901194598867 8.630201996693886
Ge 9.62981660978756 10.86643116175803 10.020169585484798
Ge 8.59112390759291 9.51451468088645 7.771610422582204
Ge 7.124130386518247 10.233951034608873 9.985928724794578
