9
Energy = -33.6060105 eV
Ge 10.470130817979992 6.303128103371528 11.511656452350673
Ge 10.975380455170749 9.085953610749614 8.737168570638941
Ge 10.158902846304565 6.521513871577902 8.98838037842557
Ge 9.533626547281674 8.498232563231266 10.937313773640254
Ge 8.154220040295357 8.154377993043342 8.698558084322318
Ge 9.127196191975157 10.165763148050601 7.264481087520936
Ge 6.604484029350684 10.245640703162664 8.615768966151721
Ge 8.92733818443439 10.788137843320373 9.88244144229387
Ge 7.196417412477985 11.448878510749285 6.451038736102004
