9
Energy = -35.15073522 eV
Ge 13.035834837553027 9.880239999235108 9.434588865431342
Ge 11.170951289058376 11.66746975901206 9.915787656486444
Ge 11.581201882724098 9.457330166652651 11.504856152765319
Ge 10.76752630370299 9.09248287365834 8.762482151523715
Ge 10.40105681119722 11.520523025517003 12.408076346952047
Ge 8.651691114825933 7.945923746495609 9.478829846507429
Ge 8.829234357798061 10.648249585863503 8.200639949219777
Ge 8.886366165623581 10.152275958316716 10.9422304144048
Ge 6.826309201572257 9.792557637376781 9.528528240021423
