9
Energy = -35.77161903 eV
Ge 7.834756996194274 9.405172357975585 7.912787553525143
Ge 8.19311694673312 8.110372713258604 10.320880577355645
Ge 9.47845280887038 11.612498112924113 7.873538826010423
Ge 10.489154250131998 9.458576590393854 8.879313817924084
Ge 9.502401332630235 7.215179164248887 8.092356709245484
Ge 10.818533226948897 11.708193522840757 10.09334204866977
Ge 8.190770270369297 10.940875059362735 10.183599532936702
Ge 10.819265616567378 7.349586917410428 10.329884000092134
Ge 10.068324928080495 9.602320064553888 11.692158115486865
