14
Energy = -4.03274322 eV
Cd 12.642108126391083 11.668068159836354 8.297545906726347
Cd 9.909755079065219 9.690558240263952 7.592206646701689
Cd 11.621009187461183 9.53731768643893 10.129758392638479
Cd 7.227449032916829 10.550157220790814 9.135135222155261
Cd 9.840885398496567 12.176872608453987 9.64533506348526
Cd 14.514733353585008 11.483926856577023 10.787386967390898
Cd 8.368066212360947 7.631672795068463 9.452144108165127
Cd 12.519861871362131 13.957415139071477 10.355358933215355
Cd 10.086360938679308 13.790681978659169 12.229480233771609
Cd 13.024851663278646 9.576862222334285 12.760220646599322
Cd 7.4554048794342735 9.249545096466 11.999229905421329
Cd 10.093881616320601 10.759832906003211 12.657722362869789
Cd 10.225556285992276 7.599454217412114 12.030834049705247
Cd 12.750634946209992 12.608193464178285 13.208200152708628
