13
Energy = -3.48446964 eV
Cd 9.713304036359412 10.032513624259003 8.271021434022122
Cd 14.234994216761763 11.030563301235555 9.367485011077328
Cd 11.00024523732694 12.401670750362676 9.745283871458273
Cd 11.476700314941418 9.340717263132149 10.681708249465833
Cd 13.504123048738231 14.06818578067295 10.464527842911139
Cd 7.792178179820476 11.911936352928471 9.859608664539785
Cd 8.27037256261909 8.873796205420472 10.789291254410669
Cd 9.498904991757632 13.100442564167084 12.374231467849002
Cd 12.210076937860386 11.783673844046175 12.661203602025282
Cd 7.215601011695638 11.031145672688332 12.818664087288493
Cd 14.231652193599867 9.086655448730967 12.057659975772234
Cd 15.353324156404064 12.052514760886687 12.058973389153698
Cd 10.0262189319923 9.813880251346697 13.37803696990335
