18
Energy = -5.88733888 eV
Cd 7.0647725955712035 11.563515993800094 7.817179776171205
Cd 8.948861633372323 13.603830430038307 9.25955255604368
Cd 9.661518710374185 12.545729416178828 6.495932863071017
Cd 7.966785124657504 11.192054475694714 11.146624174785188
Cd 9.385081922537568 9.50324622313089 6.862000381133141
Cd 7.415640895702902 8.91996181095351 9.285416404701305
Cd 10.316739651960063 9.894359699777555 9.694652467577313
Cd 10.745434375513572 12.648586789691322 11.595404935285801
Cd 11.853147741802221 12.20398504857986 8.683762547206603
Cd 11.843905303289755 7.965526310977638 7.835608702152246
Cd 9.112840523319445 11.316726674776792 14.009016309455522
Cd 8.996299561069504 6.574065854759039 7.938727679732895
Cd 12.683729752535827 8.637716229585084 11.041947478876668
Cd 7.860947190263285 6.406596328373469 10.84698090319856
Cd 13.629041609390375 11.625181508255963 11.195924544119544
Cd 9.593887091278825 8.542667327170168 12.343074822313392
Cd 10.85479543228304 6.304261768598651 10.421888068565401
Cd 11.960294353294877 10.354086073249107 13.458492975449202
