15
Energy = -4.66654192 eV
Cd 11.598354276806914 13.621585411697414 8.130045483092255
Cd 10.541170984605438 10.87835164078004 8.978933608147605
Cd 10.217574537706078 7.609295765657474 8.370783570890447
Cd 12.776689137241759 8.900483613840532 9.566972237815856
Cd 11.600147240677922 10.195770482866127 12.083030995390653
Cd 7.819310121681128 9.587109696215549 8.491291122245917
Cd 9.133954123527149 13.535337545122 10.051748191625201
Cd 13.435384735647816 11.89915910745306 10.03461170692445
Cd 8.176433103654109 7.694943256220883 10.848917375514972
Cd 11.944501340915085 14.516337723893255 11.05385314558669
Cd 8.586281445857532 10.766224410121318 11.444862396404224
Cd 11.245883185335504 6.900137163870517 11.343030051787975
Cd 10.137957798757135 12.919419324630576 13.049830768425991
Cd 9.560985002349824 8.381550255317155 13.461871387132444
Cd 13.226274738922168 12.595196375999512 13.09111973270144
