11
Energy = -2.95291143 eV
Cd 8.347269204900961 8.307267056161306 11.385771676694112
Cd 11.317268367965484 9.436912290505388 11.379378387510043
Cd 14.386002554182774 9.24844085190727 11.386348035917301
Cd 10.308055196519181 10.826555092723536 8.67885881778106
Cd 13.136470487609781 11.588460064490448 9.797849060418224
Cd 10.863781005358346 13.690981626359108 9.785055994288323
Cd 10.296722450207636 10.822916256355672 14.07605264989191
Cd 13.130360200681496 11.587954838327407 12.968720797628002
Cd 10.858144088364746 13.69042286337322 12.97688659509053
Cd 9.010784350296237 11.568279847081044 11.376130090616815
Cd 13.54145159875993 14.428767385356531 11.385257399010502
