18
Energy = -5.78847005 eV
Cd 13.510528085137883 11.293002144376409 6.845431782487725
Cd 9.395570547820133 13.827117466167465 8.499226085807821
Cd 12.11183025688538 12.414644310078781 9.333955797305908
Cd 12.46579182869401 10.430722403021795 11.655888745922345
Cd 9.694738019348343 12.46006432149417 11.235608096802583
Cd 10.465842567639173 11.544742087347965 6.719151571701599
Cd 10.706753557885671 11.49652024306187 14.036819398502754
Cd 12.265032635355745 9.233396553331044 8.691345050326694
Cd 7.772988335041327 11.236830009469816 8.669352868640116
Cd 8.321225889655462 9.904322809634454 13.003998939739796
Cd 11.12466563676894 8.448191046338618 13.684034256780835
Cd 9.325996945604961 8.790201328859261 7.127040013229008
Cd 9.744536729540462 9.55852212041243 10.206559438632441
Cd 6.3551312216327025 8.69157034778378 7.797404034288713
Cd 6.738462029927533 8.752254314254108 10.770301516858085
Cd 10.709966033571785 6.5598942896539825 8.881709954155838
Cd 7.740266061726464 6.265313755586006 9.042027561975516
Cd 9.37093849900243 6.9219982904027715 11.6517160795407
