14
Energy = -3.8291026 eV
Cd 14.345781345758889 9.087512114817994 11.176917204709019
Cd 12.102109310898168 8.475939280517535 13.319514029223518
Cd 12.426838084658636 9.891978411643617 7.998320186995056
Cd 12.961168413437555 11.72944072502344 10.373431881881466
Cd 10.270529135631806 12.04965441987209 8.389300183817385
Cd 10.647274196620238 9.404343082335119 10.401122790517647
Cd 14.582365670555074 10.220120111278376 14.02610207458828
Cd 9.0317229307089 9.445262043922785 12.91662818606806
Cd 7.5862508828736415 13.560067321678805 8.481265159590016
Cd 13.569994614036814 13.015724795237379 14.708197189551857
Cd 12.46830652030869 14.205056251404919 12.069416093564097
Cd 7.9973154414884755 11.672546313015012 10.933937552973912
Cd 9.84239050593126 14.152995225478726 10.628879449198749
Cd 10.941256018365245 11.808541510349128 13.076598297451621
