13
Energy = -3.05354811 eV
Cd 12.848457312376318 13.677966888347768 8.632634489420282
Cd 10.310179713074909 9.677497859551856 10.142484840698485
Cd 13.942422402805693 14.302684685530362 11.466405559022574
Cd 14.776115573330252 11.732834983794096 10.087755470661527
Cd 16.844172745737158 12.959223576299747 12.39739094244579
Cd 10.198314116642006 12.48252333677239 9.251923119883195
Cd 13.00489961683326 9.647154410335228 11.370640795435934
Cd 9.209888805939483 13.047200359725352 11.967147776865461
Cd 8.420316784832368 8.50650014268334 12.165371251397653
Cd 11.805750709247631 13.340482181918649 13.366161114404504
Cd 7.573018859409653 11.105981372735412 13.566269154265322
Cd 12.583090282614313 10.597273591200485 14.134331986660314
Cd 9.870873809378441 9.418264169012366 14.71996370253169
