14
Energy = -2.36041961 eV
Cd 17.37114456825444 16.775138342030903 16.64734194203968
Cd 14.99763885969102 2.1091690110613874 10.331876312131932
Cd 9.146725623751681 16.677494335663887 15.146689880499679
Cd 14.301539261750115 17.36302645515882 17.23348379406234
Cd 15.16542085457372 2.051782712578808 18.58607305678416
Cd 16.182883948642576 -0.020915484131145058 16.201896752203385
Cd 17.414210238007893 14.689633403172088 14.312151971564857
Cd 14.640312312952126 2.7369300435502706 6.886322631923542
Cd 11.847178606347512 15.787110396914393 16.46424038690441
Cd 16.54888301541951 18.76532670412394 -0.6897003303931584
Cd 9.459410189594637 13.76946124743998 16.756224196662895
Cd 18.36608270528792 1.6080980873309232 18.063768048245233
Cd 15.341785100752087 12.662489650624323 12.614866265090727
Cd 14.333304329008879 14.810211865799129 14.955905001681794
