17
Energy = -5.20494735 eV
Cd 10.148279357743922 8.954047901407423 7.513583021016508
Cd 10.500144771169259 5.851501078490319 10.44731270479719
Cd 11.222062589785756 12.591034361773996 8.415792644614854
Cd 12.02746149599461 7.879386931115308 12.046240657800702
Cd 11.230516504629414 10.234583985615403 10.257742312090803
Cd 12.914159811807208 10.059001866423817 7.5539056103585045
Cd 8.294844336872355 7.584348630633063 9.589383810587472
Cd 8.175197719661801 12.773596669145578 7.796542586321153
Cd 12.475813251850902 13.506619131775517 11.287286563817922
Cd 12.872518679541013 10.855042605439792 12.834411601380971
Cd 9.383816265697456 13.139300032371812 10.735695338190537
Cd 9.906979275025371 9.77710100331261 13.092641515906195
Cd 12.736935444396641 7.382940044855007 9.029008062726419
Cd 10.753175049533112 12.938818648017707 13.744657952399738
Cd 8.044185530225054 10.318033535406908 10.677584601335406
Cd 7.285614802350019 9.897333175897403 7.625558793471051
Cd 7.844364852287481 12.073380136889853 13.168721961755509
