14
Energy = -4.09891373 eV
Cd 10.404752886877445 9.256241432034763 14.213644928817777
Cd 15.449924040708893 11.82764228189692 14.05478717830065
Cd 11.721715308644944 9.348425551263839 11.24605636426348
Cd 14.448037389181838 10.63008439709668 11.14823032066312
Cd 12.396786832791625 11.43862065160031 13.440317416871638
Cd 8.632126909982011 9.872519170791996 11.812206232801591
Cd 9.270364927329227 12.164654305703996 13.882668606643431
Cd 9.786754202178049 10.400831965979021 9.032885006742786
Cd 11.155983451058663 14.145591343100845 12.488630754177697
Cd 15.842818674936876 13.348228830976527 11.354755271192621
Cd 14.027043339688278 14.655856167463595 13.53962964336636
Cd 8.910807437500111 12.801224870485303 10.759125667451759
Cd 11.978765488981779 12.317715688742446 10.171093808358624
Cd 13.419024635729723 15.135769199696568 10.40114025679384
