17
Energy = -5.2305572 eV
Cd 11.71385592925132 10.487063237618727 14.388773838618826
Cd 12.257951480634452 10.15413361417529 11.438402833501476
Cd 12.219292571892913 13.138501222517148 10.801242574812283
Cd 10.62737140398431 7.5768814600872325 11.931679984988678
Cd 9.615065504390552 11.872767859192933 12.697764216720067
Cd 9.144468878304929 8.876973381822173 14.274702787194633
Cd 12.894420057011992 11.383235151773627 8.374654109921972
Cd 10.247864978357844 13.087621905689751 8.495227242835007
Cd 14.171682951768787 8.740650203006156 7.438599593295757
Cd 7.742363020214132 12.111738495882372 10.344554288257976
Cd 7.8219569215617675 6.618238026679274 12.434063076629347
Cd 7.4287516053529545 9.52747691558171 11.766310575052637
Cd 9.643987187840187 9.677139982772037 9.66536437999169
Cd 12.157451477104807 7.8355768417887415 9.445294691515423
Cd 11.24420586578057 9.330694227906701 6.637722092497975
Cd 7.155233295606666 13.456514658377046 7.739658073698349
Cd 8.732469871141761 10.943185815329041 6.944378640667857
