11
Energy = -2.59898839 eV
Cd 12.42088869722507 11.448720598397829 8.530629707477363
Cd 9.20036632452707 11.646952757866533 8.269782941848192
Cd 10.941658530170445 14.296441337588583 9.072716316941642
Cd 10.76131926603031 9.018995923176352 9.682410565659803
Cd 9.16098422723545 7.049039192914219 11.726872170701192
Cd 8.42175999825274 13.394509150331473 10.820180324739175
Cd 12.473804472869515 6.870485469568951 11.89750764795056
Cd 11.403145331681134 12.67651324618966 11.783121821619712
Cd 13.346381229936945 10.33722945513654 11.293322920627716
Cd 8.063375092290256 10.211597676578048 10.88994331734695
Cd 10.525706169078797 9.768904531549698 12.75290160438572
