10
Energy = -2.15488812 eV
Cd 11.715527611757482 12.211291442860725 9.46133677706432
Cd 10.159842989888094 13.034975087480749 12.087840221447545
Cd 10.571386797461315 9.766439946549184 11.470113946058625
Cd 13.057171398005954 11.442795844651048 12.372506104851402
Cd 14.696831711439145 13.35839176925193 14.360215415644682
Cd 8.24044953639082 11.00287689853221 9.776986154530832
Cd 16.04849671263984 12.352700529023092 11.612318664122219
Cd 8.790773681590554 7.831283377451679 9.57279112878565
Cd 13.595223617357567 14.404708855713999 11.480020162464864
Cd 7.549173415867966 9.063125839132136 12.25225555071209
