19
Energy = -6.31841523 eV
Cd 10.367430553699618 14.501520153813072 8.544919933594365
Cd 10.096648666023599 13.077584898667258 11.10987020661592
Cd 12.166540490580754 12.230813515361335 7.578167403882146
Cd 13.006751529605795 13.784179844143353 10.092752904311816
Cd 9.162317057961872 11.616274632091976 8.092877556225037
Cd 9.848178515924637 11.719619984230201 13.760995667953521
Cd 12.63634982800377 11.570299829769601 12.282432084727942
Cd 14.1410260376752 10.898005526364416 9.65142039906267
Cd 8.130464052254396 10.708182890338017 10.947312591344172
Cd 6.878536300696364 11.039218843725317 13.681998394904532
Cd 11.8787232808905 9.496579156048849 14.438900104109791
Cd 6.995189357168704 9.329815523537375 8.470545059799434
Cd 11.38063575888917 9.38793648464039 7.221387573681011
Cd 11.062354369302875 10.195465984931792 10.114044244645385
Cd 9.108751095335672 7.488382351160189 7.390583447713688
Cd 9.019070739119782 8.714104882855997 13.392679138202078
Cd 8.906611366286324 7.676704472443276 10.472363334285882
Cd 11.664811205797585 7.8861223958367415 11.904766142882947
Cd 11.666799762092031 6.796378597349316 8.969173779366617
