12
Energy = -2.64593775 eV
Cd 16.278487611969467 15.043128497525185 14.992763770091962
Cd 14.150813892678878 13.883648397558044 12.944991291273777
Cd 11.009477882647401 14.001106703410937 12.29514308195594
Cd 17.01239559237427 12.530419391835292 13.209264820430946
Cd 14.891006713041378 12.270859424855594 15.578841703444724
Cd 11.631395440986035 12.611717838979317 15.077359186825017
Cd 10.20188042684893 12.282026300577614 9.622253492672565
Cd 9.152469255954736 11.4193311314188 12.917025572889344
Cd 12.337232745115886 11.151278865530609 12.180538438565742
Cd 7.80265047190871 10.632995785526894 8.32253290952546
Cd 10.818897365406105 9.983295679433684 7.4708685642023696
Cd 9.774708526831878 9.283904123738056 10.442207809631128
