16
Energy = -4.78733446 eV
Cd 10.688500229863253 13.016760375113995 7.357734683674602
Cd 11.92639884167525 10.058332525702932 8.069018272942401
Cd 9.280591332326562 10.41746604097902 6.431472160774048
Cd 14.120882500827623 9.724883600829813 10.240471064427526
Cd 12.606544247400265 12.535786080319593 9.848569724598441
Cd 9.522554607514575 7.932035685514968 8.207120411744587
Cd 11.644018512335878 7.545870020546298 10.49205351032682
Cd 7.745539353427272 12.458603727471539 8.159298682382225
Cd 9.65197743996736 13.108473205548767 10.531448886197948
Cd 9.774581504104795 10.067588024804058 10.311526119827507
Cd 12.717317803655211 8.985326562717074 12.9290709031998
Cd 7.121347113247935 11.293040746817514 11.014801254136648
Cd 11.240628555709602 11.60871616347833 12.704828935659824
Cd 8.721461537087492 6.749433730547911 11.09582076625831
Cd 9.639117863837509 9.009444709823455 13.385696977043702
Cd 6.749936843265755 8.6396370860315 12.372465933052094
