15
Energy = -4.3027584 eV
Cd 9.796085062589544 9.425306375003922 8.634906750374824
Cd 12.814995536887647 10.071280675680933 8.209422228068378
Cd 12.648050262831674 12.869344568743406 9.355396107059633
Cd 9.890214766681785 9.621874631860756 11.73047758192806
Cd 10.39316341442908 15.359412633039218 9.096899105700329
Cd 9.820709915302071 12.274229312897466 10.27646309566479
Cd 11.686585242933715 14.437017919598803 11.816584818733613
Cd 12.064521278743342 7.720881265918842 10.090079045186162
Cd 12.815016543770776 11.326954539745056 11.982178234131004
Cd 8.029407676270882 12.06298772991892 12.771794362068485
Cd 12.477063053320366 8.524789678044309 13.107481774337867
Cd 12.983378654346012 13.268755198086547 14.386873163186122
Cd 14.731729446042614 9.231407219572546 10.677627749662156
Cd 9.97173140885386 13.841976472253554 14.287461594075731
Cd 10.763506608821078 10.849940651460486 14.462513261647892
