10
Energy = -1.65881528 eV
Cd 12.46730164798305 15.953728110270783 14.567782707516917
Cd 17.485775216604573 16.42428858735279 16.90598188048994
Cd 14.578752142360097 15.729473969427191 16.78844200381204
Cd 1.916475962045601 0.6230433342299306 13.926356589094816
Cd 15.069681058684385 14.507275803743463 1.5145322189005108
Cd 1.6176951019272499 16.059103618097303 0.8713909726132724
Cd 17.119493504359642 17.62524693168787 14.131410887385748
Cd 17.854499377469587 14.596825952651589 2.877899972099161
Cd 14.33345253880762 17.68127315835217 12.782749096533745
Cd 2.9687753040257925 17.696143938739255 16.674768203310904
