17
Energy = -5.01224427 eV
Cd 12.590410852527006 10.385905656058325 11.652873876636377
Cd 9.835350720872459 7.573666803978561 7.522667858997203
Cd 7.40228198594196 7.703440752402928 11.799582112990056
Cd 9.861994796118188 14.244888198303391 10.412410017273602
Cd 10.060090407830812 8.954400159152602 12.672730623384004
Cd 12.664351880496342 6.802298436264492 8.815872337401759
Cd 9.908810530402171 12.058026621720805 12.481664166025881
Cd 13.47744668417257 11.914820059236463 9.21930746258974
Cd 7.268243869989721 6.281737673170358 8.984710657462026
Cd 12.187835608716293 9.625490302606924 7.793372402128689
Cd 5.947173986461837 10.06833942988879 10.653387190742597
Cd 9.873339070013843 9.883025064327702 9.916580894345289
Cd 10.572048325863653 12.273401709466283 8.09730008006009
Cd 10.137545203283018 6.535381052940832 10.591136604300702
Cd 12.64227195362859 13.7130481993322 11.528512977575472
Cd 7.473159231736666 9.493195203002786 7.896748928847566
Cd 7.794931671944608 12.18622190848469 9.658428814407754
