16
Energy = -4.68795186 eV
Cd 11.459265271907435 8.561137197385184 12.810816705465996
Cd 11.728279142247905 11.310990758529305 11.522545375849568
Cd 11.618503765465055 9.244479367726667 9.205440745787108
Cd 11.429796910309697 6.32946596994766 10.62602153750827
Cd 11.130958265474295 6.78930055881193 7.504126890311754
Cd 8.703994907242544 10.1087589409322 11.770742319006283
Cd 9.514509903516247 9.45030987265125 6.480740740636086
Cd 9.71746111161775 11.6821843636439 9.274836995997711
Cd 9.174765072716493 12.494794729112268 6.433348470553315
Cd 8.897293639829785 6.992387244363783 12.441111034459277
Cd 8.805308857685743 7.717101266767011 9.3939013269451
Cd 6.803192480733363 12.442653344337268 10.421028603421975
Cd 6.767093891181031 10.982959507070857 7.431813708680863
Cd 8.891700237965024 6.548857378977047 5.383099210632905
Cd 6.333313885835928 9.30558383303244 9.943809404024815
Cd 6.645005501925081 7.832148609327138 7.067610095083559
