19
Energy = -6.21251297 eV
Cd 7.719386816529871 13.352240099111963 10.274945119273754
Cd 11.299773523688168 9.422142494808325 7.279886022333925
Cd 10.816062853278385 5.4726487049824115 10.287196502648152
Cd 13.919283014095836 12.401053219608153 11.193767838575212
Cd 8.954269506257909 10.841396230013157 9.067449921903554
Cd 10.393968648111327 9.464425951734961 12.86869093694926
Cd 10.856570321248478 12.84109319232279 10.889876772887972
Cd 12.454515291023062 7.286633438608695 12.07128446906147
Cd 13.561892003472586 9.727662753459708 13.172175083165616
Cd 11.208523441699995 12.121820504962866 6.059893228228679
Cd 9.72983587547763 13.666080033299336 8.124726345167328
Cd 7.575814956797993 9.145907867743205 11.532349423157012
Cd 9.59988018781485 8.067449051801644 9.475526395184874
Cd 12.27796309420914 9.791197178989961 10.257736575810448
Cd 14.546005257795136 12.403259512996245 14.081699207085418
Cd 11.582972588564145 12.314402712306684 13.947233233559823
Cd 12.96182033838252 12.23576556961716 8.465348554619682
Cd 6.049087475688742 11.636576730318238 12.090510946205413
Cd 8.801591801299168 12.11746174874945 13.168920419617212
