16
Energy = -4.65664628 eV
Cd 9.14887427228964 10.840000787392523 7.467893368303425
Cd 12.196386628133533 9.73635235352273 7.372826880112942
Cd 11.330183293378688 12.85508251598369 7.843106975034243
Cd 10.163786433950625 7.95647910926722 8.976964553218707
Cd 8.653146621824902 13.11444086556449 9.898455620957618
Cd 13.765518156936265 11.285050594287641 9.58960830048445
Cd 7.8419751190022815 9.687163416542974 10.018603076915923
Cd 13.173121616241096 8.190574566024571 9.954716203770548
Cd 10.788669899331923 10.5877402903384 10.735800363767662
Cd 12.030559935006789 13.512765086012037 10.778524325244256
Cd 9.149512057498054 8.309986271006336 12.42625114441322
Cd 7.699565031349099 11.358539309393862 12.61908725777907
Cd 9.903977182251055 13.32893656052961 13.020395067604909
Cd 12.262358864156651 8.43509903918255 13.024511672822188
Cd 12.827298168889145 11.558302327833879 13.027344890521965
Cd 10.257166851570902 10.435587038928265 14.438010430859801
