19
Energy = -6.30523955 eV
Cd 12.645069021226387 9.107778147295289 7.368835149347036
Cd 14.041051481833968 7.441159809502614 9.439555817328294
Cd 9.978079941942795 9.862444488164854 6.291399702585102
Cd 11.500836149387903 7.1806530616467885 10.844406112895648
Cd 9.679248172160506 9.02527146612082 9.111286152433593
Cd 9.147633443921682 12.67038209375476 6.483434879457949
Cd 8.482744004607609 6.89013796031652 11.0322129362757
Cd 6.650033575779947 9.115357726982573 10.034523911398622
Cd 13.985307974864384 10.426113840560912 9.85011466855002
Cd 10.174261974424626 7.996957412636218 13.44620017205329
Cd 8.562173960161012 13.651187612738116 9.167034033487518
Cd 11.269289799325806 11.855638100608536 8.93022114208381
Cd 8.53735964285406 11.303874718431624 10.901606305537873
Cd 7.18871205167539 8.82895183147577 13.028146154192692
Cd 13.055384183365943 12.80312888635463 11.447115486768048
Cd 11.423178061465496 10.164787221099964 11.704744181023864
Cd 10.743520146775008 14.656767577496334 10.833555972384922
Cd 9.28180798095434 10.897855287277839 13.782517199409952
Cd 10.87221492198887 13.339459246251126 13.520996511501505
