14
Energy = -3.84596018 eV
Cd 17.241736023233656 14.603699510783374 14.302262459076868
Cd 19.009613096981894 14.398027334716799 17.026632436891166
Cd 16.000501047556153 15.51811879954288 17.005777562619265
Cd 16.693043630513642 12.443889505970423 16.555681992688033
Cd 16.28361504066014 11.649118622942039 13.56956019045856
Cd 14.302247128319285 13.86772827568205 13.14402163620705
Cd 14.861649439958805 16.668425318878175 14.319455240504038
Cd 11.225263635983355 17.16601735183025 10.72725121194097
Cd 13.847846308876765 11.72192378661709 15.500242695454375
Cd 14.165796092210178 13.175341290295165 18.246209029562102
Cd 12.506100890161415 14.335831215505387 10.605536038159935
Cd 11.450557915515207 15.630570077397445 13.442960583830171
Cd 13.06591325141297 14.762396178507418 15.92791939653302
Cd 9.436577581699604 14.56390644938669 11.209031664138301
