16
Energy = -4.49655096 eV
Cd 11.430267454606906 7.6829848553223075 13.18722780337953
Cd 12.503691609142601 7.726343148313106 10.379263160853423
Cd 14.125662569317901 10.276925013340103 10.52502728795306
Cd 10.667361209180683 10.57664039650068 12.477368513636526
Cd 8.384059843303286 8.383920512289434 12.93212717093283
Cd 9.430978513374908 8.198714106172138 10.036684418715717
Cd 12.12320013950668 12.566821047707993 10.710620614862336
Cd 11.485450108857789 10.156161224567642 8.570788481589258
Cd 9.799465579232978 8.034692116342477 7.0831952960192215
Cd 11.756453221587494 11.920036590866657 6.016915493429632
Cd 6.458539915444923 7.026041442572066 10.31017463278163
Cd 9.18320842072488 12.022463059540796 10.009833575915005
Cd 6.860982587679019 10.02295913011952 10.869874345644975
Cd 6.765937414960385 8.759359212164869 7.677136949121574
Cd 8.839212669210939 10.981800419502825 6.900905135728017
Cd 6.507579635219323 11.933862424841108 8.567513549625238
