14
Energy = -3.80805641 eV
Cd 14.69866639915007 9.026170935208334 13.036197286280357
Cd 16.2864454463501 11.51496577234681 14.101220769789148
Cd 13.737970789030227 10.696460374420871 15.589794128514889
Cd 12.4463664502306 11.037350241949513 12.553793915242041
Cd 14.65071512081734 13.668008829988949 12.507152028907718
Cd 13.478355648181564 12.39178253923 10.052411057225841
Cd 10.656558354972942 10.35742473717342 15.010471529357806
Cd 14.657657576828877 13.98194238741565 15.509695188407065
Cd 12.696703050627354 16.47937008777786 10.899459395394208
Cd 15.628084679335549 16.530668862973407 12.102892381680796
Cd 11.261487878487117 13.720423211457348 11.753113285071628
Cd 11.72335370187773 13.289110889671965 14.879697021570873
Cd 10.04864981426058 16.272405929186178 12.737581800014357
Cd 12.939922535324664 16.19732690497712 14.001347376296218
