10
Energy = -2.61434587 eV
Cd 12.538928329429915 11.806915009874592 7.790908381804884
Cd 9.845155787311148 11.774290999463629 9.241001452612362
Cd 10.065010246541439 8.631440979300988 9.655277258017435
Cd 12.676131357772581 10.369451430703535 10.409042062231212
Cd 12.007337445331247 13.51134131591292 10.608201495746192
Cd 7.737277712136324 10.414869735367857 10.924884722847722
Cd 9.43800497635182 12.98232323400341 12.370590399662929
Cd 10.137013373931934 9.725763837445822 12.623715692519678
Cd 12.988102604244252 8.61950691718516 12.818858945109215
Cd 12.274129471712092 11.871187845505077 13.264610894211007
