12
Energy = -3.06728158 eV
Cd 12.52858899749424 13.315786670859286 13.435051321135354
Cd 10.494761568049936 11.119461909021874 13.105016038516832
Cd 13.046764178111712 7.555530166143971 11.707483601100007
Cd 11.870726725540255 12.060825525629378 7.88425246632129
Cd 9.539089133596498 8.429567608538722 11.951551107331799
Cd 9.358954503893113 13.623727742439943 9.259411775112934
Cd 13.060125513317267 9.231609152987701 9.112075633036016
Cd 9.626218488397273 14.292602775354524 12.26240728441102
Cd 13.479697818554907 10.190873789983506 13.247709512401709
Cd 7.95139922095221 11.31900936974149 11.437771278563751
Cd 10.122535525043888 10.273688867928346 9.554841052602587
Cd 12.606382716801308 12.024127209856353 10.753503253527885
