17
Energy = -5.26959649 eV
Cd 12.542988961910934 12.281281365309036 10.488425293189932
Cd 12.012830304083256 9.434447080636005 12.692428788141463
Cd 10.335668872735331 11.88569988830096 12.525927649055904
Cd 9.648096332613697 13.089210202297439 9.7833969573538
Cd 11.37348353652849 11.740053834225995 7.696833503528662
Cd 12.623339062635344 9.3877886227417 9.716213695926571
Cd 11.771883310015673 8.897882693605982 6.771197979987521
Cd 7.407772743722146 12.106089612750482 11.75461268292878
Cd 7.31457754719547 11.592642904257751 8.587199565097242
Cd 10.670861538381365 7.256658352485291 11.086958315897624
Cd 12.279631488987516 6.560702532507449 8.643122288210323
Cd 9.0409345930063 10.176298162626583 6.516937369774051
Cd 8.825185305374912 9.168380588624181 12.538893626520698
Cd 6.371147957636046 9.500099939787885 10.64818891508171
Cd 9.392997391475378 7.406199065458151 8.159138450679968
Cd 6.678838441520424 8.668873485926873 7.760494355908108
Cd 7.718438307019162 6.856367363299709 10.638706257559667
