11
Energy = -1.77793752 eV
Cd 13.52483344358416 19.472507415482887 16.06364856808422
Cd 4.768085332383763 12.718400789379963 19.53050376822514
Cd 14.710186305735501 16.59262422227181 15.565754766877694
Cd 17.355905045612854 16.116334404829814 -0.46693386918028645
Cd 14.935853035899576 18.05557158413345 18.49760556355263
Cd 14.761048203664865 16.438441032307015 1.3665767979195544
Cd 5.091193615098268 10.798442215259184 2.32446535519624
Cd 6.388399771141445 13.838361259823314 2.306016748729111
Cd 14.625572764228243 14.727893036963343 18.535514118354413
Cd 4.382653111141821 12.969263291845214 16.23434328898741
Cd 16.68227738626964 -0.7818249069774633 16.002253448084588
