16
Energy = -4.82235042 eV
Cd 12.98318086850227 8.255216316832513 8.178636614440029
Cd 12.57958293722249 9.531036635021037 10.921309222604213
Cd 13.379639312554815 12.479508398654675 11.595299013204514
Cd 11.72906686066451 10.10558184839122 6.143494002071922
Cd 12.554228496065843 11.628404807743502 8.65563277169342
Cd 11.189769408191118 8.027827459245726 13.121035591169667
Cd 12.613514448509681 10.66874398214668 14.004216710089445
Cd 9.957287745179924 8.025493149023276 7.6768477844981335
Cd 9.217637732693253 11.161612189569453 7.753882539328191
Cd 9.569263307171074 8.927342836631176 10.681637604146422
Cd 10.926693392925939 13.22251122975635 13.271332698734648
Cd 10.251831589738083 11.99382444826317 10.537695599085865
Cd 9.469343928376313 10.480867815871866 13.460166281996512
Cd 7.256571198841721 9.04068688207179 8.760171983680374
Cd 5.532256479215895 10.996600875659066 10.244773926647584
Cd 7.6755425252545635 12.340151356225688 11.879277887716258
