11
Energy = -2.67482973 eV
Cd 11.427021284467433 8.813021204256348 8.48041150226715
Cd 9.200741058066024 10.830876274192624 7.510066817528569
Cd 9.36505501643666 12.60027992104119 10.122315864392265
Cd 8.441361611225277 7.738512839624792 9.004079417658744
Cd 12.071276890893092 11.900867916930856 8.65684267205428
Cd 13.358414823718583 9.576849595821345 10.946792138502186
Cd 11.189747275697549 6.810184882934387 10.938244692317749
Cd 6.938809297098161 10.497829410240643 10.19299690812649
Cd 10.007184594204599 9.603847858897694 11.352390363861938
Cd 11.860898218120036 12.319603346086966 12.143328648330812
Cd 8.537104828431723 11.705741648332152 13.050145873318682
