16
Energy = -4.86539966 eV
Cd 10.307903695983873 9.672549214280032 8.098603752365097
Cd 11.297516051076403 12.671361312411852 8.423854677141016
Cd 12.092993539299298 8.302907078746411 10.445742023919236
Cd 13.377179779568287 14.56298733508411 11.478921909442839
Cd 8.420261300294753 11.594917810238078 9.683969533008506
Cd 13.342944667086305 10.170691507086833 8.216734836149978
Cd 13.107035639734343 11.412860848719038 10.958312448475938
Cd 10.474807263921356 13.141100204928065 11.317396098093921
Cd 8.914952342072084 8.656171483995294 10.690573855543484
Cd 15.431928464204177 12.533313605180338 12.66577965557365
Cd 10.635045647916918 10.325373056158133 12.447721922888244
Cd 10.959775961255133 15.449100405472313 13.235041128615176
Cd 13.151852687683691 10.849326242072083 14.088106588752481
Cd 10.510308284311819 12.623185248423415 14.539495005131704
Cd 13.3493535168206 13.916034962949878 14.549137934203234
Cd 12.441503959956188 11.9334824854398 16.97597143188117
