16
Energy = -4.81052505 eV
Cd 12.061748474321229 6.987032413179092 9.284318959200112
Cd 13.895791248526152 8.870119657310845 11.005459043608882
Cd 13.487547176470567 9.575661550622598 8.054767650287879
Cd 9.060608429105597 7.215151781645002 8.779353154177201
Cd 9.979079249919925 8.362906691685714 11.47761931671557
Cd 12.80506007201249 11.848512619775011 9.979111770181838
Cd 11.9681296814959 10.307231706083133 12.819139279946025
Cd 10.442891075130442 9.881973293616381 8.392447714404305
Cd 6.6294521416084455 8.081332067367866 10.429811590253692
Cd 7.405364547627013 9.619833966923544 7.678193331638646
Cd 12.274617663705806 13.410291631222375 12.616207112874399
Cd 9.664812995072122 11.390517183132317 11.14216121126499
Cd 8.688985364607742 12.385324139210141 8.423214013222687
Cd 7.568285232986611 9.795944340627546 12.793627146641308
Cd 10.720731786711402 14.232722388753304 10.026848023889233
Cd 6.496754355592329 11.185304063738773 10.24758017658658
