15
Energy = -4.64307492 eV
Cd 12.28319938692035 11.327352242285478 7.980706691233084
Cd 9.252395423947517 11.866464657779792 8.85722990633989
Cd 10.577295766774442 9.000689562375662 9.363010299159741
Cd 13.539075394770164 9.42601540366707 10.01705048765651
Cd 11.425699098076532 14.002339644381506 9.206647697302909
Cd 13.389634510576686 12.375274046641035 10.988597893917063
Cd 8.707829867723468 10.28705536678375 11.416599587623722
Cd 10.27367118982572 12.922504089567456 11.889209135477728
Cd 12.499845275406189 15.05463518785289 12.300785901646499
Cd 11.634771161177193 9.984569726326123 12.410098934101804
Cd 14.624221043543201 10.483156975762622 13.119502637516026
Cd 14.393710535491307 13.391976328140114 14.041372718706302
Cd 9.790364531398296 11.334789770223834 14.511840778110402
Cd 11.357500626921603 13.921660153451398 14.915184501151284
Cd 12.693343225125014 11.064073882439363 15.424719867734993
