11
Energy = -2.98907737 eV
Cd 8.845210833284781 9.985598891563889 8.534859249732499
Cd 11.738368053145129 11.271540259258863 8.603631514298216
Cd 11.28221242756407 8.48353650899834 9.886049372855233
Cd 14.278810328407294 9.308880982909798 9.003104987343864
Cd 9.248779760205073 12.484150467935109 10.283546025032141
Cd 12.011612677636458 13.564884039916898 10.887243845798876
Cd 6.28984037160383 11.486405892878546 10.89237626362951
Cd 13.010613612731033 10.643826143612744 11.443866642575529
Cd 8.782331647915008 9.639394259606116 11.591319214124681
Cd 11.216628483955411 8.691557485555728 13.124236030204237
Cd 10.641925411985032 11.786558676197497 13.096100462838313
