10
Energy = -2.02914959 eV
Cd 10.362229596934808 10.679520723637461 10.644500547330516
Cd 8.528091494779057 8.126689883864065 11.191852048934507
Cd 11.340657069824477 11.48313904915386 13.857637129961342
Cd 8.901842950732092 12.886794186395509 12.412653444361949
Cd 11.055468754567094 8.227119320624952 13.099612373775411
Cd 11.865231004401783 13.652845765462324 11.614854560032931
Cd 11.390552936917754 7.417548913298573 10.038085792514204
Cd 12.144183790466675 12.790494355081954 8.403053836994086
Cd 11.936921896621044 9.708260148688872 7.6750764057400245
Cd 9.321507043861171 11.497221990949015 7.744415353661311
