19
Energy = -5.92082067 eV
Cd 13.260972656863647 12.463159803862059 7.879530409473776
Cd 14.59505882153251 10.42792470768882 10.039378081245353
Cd 12.35936851096545 13.034478348565585 10.639618773012353
Cd 15.008882411297822 8.879906113512769 12.669262603296046
Cd 10.210050902822784 12.347043670315735 7.409799338974065
Cd 11.907639563057783 9.798591660038392 8.519904313760906
Cd 13.842954967884543 11.647334128993721 12.957692799921428
Cd 9.95682337876917 14.584370751384398 9.579494801050206
Cd 12.416118235790815 7.486744878728167 12.828047149171635
Cd 7.402604876625651 13.308814542862391 8.444720057028057
Cd 11.273681784476643 10.27135564481284 11.648779815600736
Cd 9.011219974012931 12.29891318641121 11.288073760000941
Cd 8.89516570044979 9.90087991401075 8.99678034832964
Cd 10.82759209630233 7.503680569035585 10.176549288674405
Cd 9.319402089958464 7.666682739998895 12.803687474164649
Cd 9.11862591753263 10.544303976883718 13.757052027916306
Cd 5.811728661958483 10.82549836465635 9.03179826213159
Cd 7.059290959282201 9.803461504490942 11.638221871525998
Cd 7.794085216364768 7.283452412001709 10.091325036727277
