13
Energy = -3.19616051 eV
Cd 13.905863304931483 14.555703336727097 12.15003646129856
Cd 13.17449383738346 11.296850749929991 9.574747616446471
Cd 11.048774769828652 12.996934646327253 11.452309557701778
Cd 11.013672025254719 10.863710933751001 7.334364254227514
Cd 15.91544965219795 13.065144242805909 14.045206437452256
Cd 11.080394891626302 15.430781544047573 13.685541025677365
Cd 13.195182449805618 8.617146822060114 7.9022802589699666
Cd 10.810015084195943 15.00580114919011 16.82484104717406
Cd 13.681173700899079 11.420656126117274 12.712208956559726
Cd 13.204274745126407 13.669766094295346 15.332202190439629
Cd 10.272686579482318 12.568789579164635 14.746413491760709
Cd 10.888633146368882 10.184324037513061 12.879842726401149
Cd 10.798940023245223 9.079400622575381 9.90966268223728
