17
Energy = -5.16891087 eV
Cd 10.619015468349692 10.242095818969357 13.722037743152542
Cd 9.805143137067981 13.154593223291016 13.084740036902813
Cd 7.755957913879511 10.650892534944894 12.744177754228389
Cd 11.693212448573728 7.59008391378144 12.70441864036774
Cd 12.615711264339417 10.268780779222203 11.367447897513404
Cd 8.620206934853599 7.629783300525764 12.286049075505499
Cd 10.679930612147423 8.379605748604941 9.840303928707486
Cd 9.761325494392363 11.502605084939834 10.49678257440996
Cd 7.598860185847375 9.336331141060624 9.912914366168197
Cd 8.843195838059778 5.836022219944847 9.495798592032115
Cd 11.99169412951814 10.912023009828188 8.420527079657985
Cd 8.349670617488139 11.443725053207773 7.665462362841661
Cd 5.836423887144549 9.736280922636706 7.20997381498851
Cd 10.636281099062796 13.192571783626022 6.694098590364091
Cd 11.434852927413914 7.450799957217774 6.981045266331406
Cd 8.43713812581894 8.09272807936309 7.1035742914908075
Cd 10.577858164453907 10.156723882246649 5.824602407897228
