12
Energy = -3.27072854 eV
Cd 8.288304364141357 8.771364964689356 8.931746275278757
Cd 11.10935396384265 8.70253639762805 9.969955044960805
Cd 10.664508682408982 12.723388353034634 9.956278465588595
Cd 13.516205659167161 13.871931260982967 10.317111615396811
Cd 7.638976612424699 11.578033036677907 9.802296566967422
Cd 13.20500973725322 10.868658426789034 9.642913009250647
Cd 8.750537640910679 13.043052647546103 12.346252472737039
Cd 10.437123108673635 10.56983369338199 12.31481759458792
Cd 13.187441787079004 9.175725852532135 12.295811058137883
Cd 11.768344499613061 13.538013322656877 12.900399743731334
Cd 12.466121756294886 11.093479358307215 14.739478095079988
Cd 14.477230531827903 11.973136440051006 12.583063111302744
