16
Energy = -4.81260675 eV
Cd 8.242964444520073 7.341567278567873 9.053518299523262
Cd 11.190733411898885 6.616829432109807 9.592853795294133
Cd 8.99649107541875 6.808458342458283 11.9414877797344
Cd 11.961338582756193 7.603875755908632 12.478298682250124
Cd 10.327504401708403 9.469685543283934 8.6539028606918
Cd 8.186587103485284 9.749639287374002 11.004261231833194
Cd 13.121491368713713 8.951188677824888 9.985165028463634
Cd 9.654158590211852 9.155286090125976 13.772042134527718
Cd 13.746048923382734 11.207141482687312 8.108287233020736
Cd 11.138126603871216 10.61375470778876 11.536800078985799
Cd 10.998704791158382 11.792921326535124 6.674842731356757
Cd 9.244015623088861 12.312236779831332 9.313850006133931
Cd 6.480255828053154 12.228744755123424 11.427211954462052
Cd 8.63421567186583 14.401416108582852 11.553920881693832
Cd 12.103580305283087 13.738339580287173 8.745824634748525
Cd 11.498111454097204 13.533243031025435 11.682060846794185
