11
Energy = -2.78635864 eV
Cd 10.419179558857937 10.372676219075068 6.609746634126721
Cd 8.837809282015451 11.679860615772457 8.895165068690437
Cd 12.204946571005744 12.155876137071411 8.725966161078528
Cd 11.213050665859198 9.072117882167527 9.47819974233801
Cd 9.368139898504776 6.730932432063548 10.75528873401074
Cd 8.263167018131675 8.410135227767343 8.14243855838833
Cd 13.408611755998004 10.548889889406722 11.331019655219677
Cd 7.660268795146354 12.504723187580671 11.594322473856103
Cd 10.631631676438289 11.803613925515501 11.724046032924349
Cd 8.212127077300787 9.508865805123941 11.367073981067945
Cd 11.177552550953498 8.608793528667244 12.773217808510728
