14
Energy = -3.89990409 eV
Cd 7.508416784657613 8.628308546084115 11.861630987853204
Cd 10.767645417835858 11.645587254681024 7.195339768078595
Cd 10.903184639524088 9.043778479154417 13.953754061783563
Cd 13.369043320518248 12.802163626411 8.44504299253862
Cd 12.872437543304654 9.648075831429948 8.60653164291082
Cd 10.45715837742559 8.585156527695794 6.8301241143568445
Cd 12.967584692885968 8.455854124019764 11.583104307242547
Cd 10.469971064485776 12.86068115274253 13.550898237148026
Cd 12.00097445699544 11.270988115042048 11.347020101273632
Cd 10.23899883940553 8.737597289537288 10.394237651442944
Cd 10.600049751760567 13.447742548666684 9.813564653590428
Cd 8.317355425797068 10.11535294664871 8.557292007324753
Cd 8.636618139169293 11.588197489172929 11.198292777923005
Cd 8.349537773586821 10.629491841361707 14.122142696533015
