12
Energy = -3.24780937 eV
Cd 12.619000359992999 10.617092951021693 14.764890389923222
Cd 12.159627953072727 12.53178409511643 10.053046457512327
Cd 12.694896467635607 9.873474156611756 11.735215046099817
Cd 13.381421193222026 13.786495342053442 14.502051576238156
Cd 9.765491434842554 9.271809391791423 12.285334459070851
Cd 10.89311066647199 12.23950047808336 12.94888256615851
Cd 7.573409221459452 11.115293743367259 11.251059147236061
Cd 9.244553155621972 13.548970402449816 10.531037478194431
Cd 15.120808707583887 11.484256186462426 13.220549947392175
Cd 14.97436136653185 11.356868123714163 10.124769462218918
Cd 14.713627539305783 14.132586050366454 11.596824014827222
Cd 11.765837169227336 14.947689980032703 11.893457691788216
