12
Energy = -3.32003469 eV
Cd 7.432001833333433 10.117259083333263 8.214100166666643
Cd 7.529108833333299 12.69728508333336 12.390252166666698
Cd 10.02934783333333 8.515169083333486 7.862866166666598
Cd 8.797444833333323 9.042005083333393 10.739281166666574
Cd 10.048433833333377 11.453447083333376 9.053987166666682
Cd 12.475162833333366 10.488965083333277 7.409399166666733
Cd 10.245645833333368 11.426309083333333 12.15958116666664
Cd 12.811881833333347 8.112763083333334 9.292159166666677
Cd 10.42129983333333 6.458628083333315 10.254441166666583
Cd 5.813925833333253 11.982034083333232 9.982814166666573
Cd 11.574187833333358 8.657809083333436 12.146545166666733
Cd 12.809294833333347 11.036062083333329 10.482309166666717
