14
Energy = -3.98754319 eV
Cd 10.94989699537602 12.739772967702043 15.152109006158994
Cd 13.7193922685042 12.335239626552616 13.339448870079856
Cd 12.523586635242673 15.151042336522211 13.761744197076874
Cd 12.576141748793452 12.536991554780176 10.4658657307731
Cd 9.609167526093747 14.55418429830794 12.949607788346205
Cd 11.288868462684661 10.618454625238464 12.82385865353698
Cd 10.27382684840941 7.796093644488138 12.929900559715295
Cd 11.558076628523843 15.42667785787794 10.65737270234604
Cd 9.477347140090714 12.492377024765846 10.730687227705625
Cd 9.291936432953396 9.441935419880819 10.51663019226812
Cd 12.073178486524162 8.016145291175349 10.496177882147604
Cd 14.174738489240047 10.05187847672167 11.415127934783108
Cd 13.541839996652758 9.70681177156804 8.440935815765448
Cd 10.850874533408627 11.054796196272857 8.399121206776206
