17
Energy = -5.2959073 eV
Cd 9.205132182288269 13.392725038258893 7.404422409664541
Cd 8.39444776568091 12.72697619221645 10.29994318932557
Cd 11.345307988684405 13.076588511547003 9.931797716857268
Cd 9.489340648990058 12.651011665147806 13.146120319836802
Cd 8.35804488772983 9.912614646692534 9.49839681517067
Cd 9.121964792383377 10.461235005704904 6.607047395063569
Cd 6.1975683093705305 7.7651662386440075 9.721234838858184
Cd 11.90839269209329 11.867148563716132 7.046763418106238
Cd 10.844759476901356 10.261642672131428 11.272453670139013
Cd 8.557066624823028 7.523945864649001 7.472532007721922
Cd 8.361112597194097 8.2766923644219 12.027476418542731
Cd 8.55238881484039 5.852145355676997 10.096962407327874
Cd 11.239667914967269 9.049052112813666 8.393468385648331
Cd 13.490270398176884 10.917833345748726 9.57779320907495
Cd 9.512757257856427 9.855597061285842 14.383464870932416
Cd 11.14036319752965 6.022179615823145 8.483382106516304
Cd 11.199920030487627 7.233715459829363 11.296227541174618
