19
Energy = -6.16814282 eV
Cd 16.807643376639845 11.728699723716538 12.20643632967637
Cd 14.950807770607321 9.609531530101956 10.530373570039357
Cd 13.124386951273468 8.277491920970515 12.625386543083403
Cd 11.21119577139304 10.847655190332468 11.588947324707794
Cd 14.751541085834639 12.590773032099936 9.973790107833318
Cd 13.932083454205506 11.461723691020183 13.153750985609879
Cd 11.400278067240182 10.189966243677357 14.544169724737145
Cd 12.227919083816058 8.988028855366878 9.417626706354447
Cd 9.201884710626123 8.615933490994271 10.580857009166218
Cd 12.305261144857564 13.81823579418416 11.510421918691483
Cd 12.190583094521733 13.424603587424436 14.711888955256217
Cd 11.83156543421311 12.147994464371203 8.874901626162588
Cd 9.786297358242011 9.90546223222939 7.819507650634727
Cd 8.350160235939791 10.821122753576846 12.59752250740185
Cd 9.913602438669317 14.903012171942931 13.229450203221779
Cd 9.296653742212191 12.38838300082815 14.983423457383683
Cd 9.253408322759777 13.237238882497518 10.849475376219928
Cd 7.256912267926782 10.96753999907222 9.700071522115152
Cd 9.000834317776183 12.869622064347384 7.895017110458655
