17
Energy = -5.40416943 eV
Cd 11.917287723535333 13.2863609868564 11.121783597198911
Cd 12.329035235614967 12.843553997132025 8.097630666279162
Cd 9.454535352292712 13.939370730411808 9.472029501767393
Cd 9.245131037883487 12.403283073814093 12.48245282064901
Cd 13.427525665916416 10.680928206687351 10.285104835804631
Cd 9.604690183660153 11.516621207961334 7.504529930283135
Cd 10.381843181101546 10.387171963737577 10.538292546242547
Cd 12.003828643185837 8.705926227465206 12.35460371518557
Cd 7.398539160698128 11.486862230386699 9.64652790152851
Cd 6.642640107785218 10.731069244685399 12.484957274249602
Cd 13.147972346362028 7.559473287577474 9.745674499920673
Cd 11.970821477873516 9.61015851853617 7.639113824415054
Cd 8.835477299320624 8.751536768104454 8.510252619246485
Cd 9.736986202525669 6.8864145909288155 11.035115486033552
Cd 9.115569522174502 9.169923142782874 13.186143509755633
Cd 6.79988135913904 8.316998559842853 10.669191365998358
Cd 10.852188803216723 6.588300565375215 8.090549207727971
