16
Energy = -4.65608477 eV
Cd 10.805089307148673 10.342194132394416 5.931040955492748
Cd 12.717278850627483 8.27315959855957 8.03298323877308
Cd 8.082205942547239 10.671621990535956 7.171808564788841
Cd 10.788992082467143 11.232215356228043 8.943638569220926
Cd 9.610079700475916 8.284516118309426 8.496346222666638
Cd 13.240717080208581 9.485446733657076 10.74236856108194
Cd 8.00521935209785 13.459016515809097 8.272751917446115
Cd 11.694834107347631 6.7853770696627755 10.457650947313613
Cd 5.883574388475863 8.682281080250867 7.741052797861736
Cd 11.879323823958963 11.956609052724405 11.860000279386277
Cd 8.784018984646542 12.691126454914059 11.070393667230338
Cd 6.345243462948476 11.30566351296404 9.866952494866423
Cd 7.164980391145104 8.42006086585445 10.496657744776472
Cd 9.77388068049804 9.748405232385736 11.581047038776719
Cd 11.87661732002513 8.240324983014832 13.410994312810883
Cd 9.247792265937548 6.8058348154206305 12.30667955018662
