17
Energy = -4.84174553 eV
Cd 12.717731080899098 12.062996110050273 11.800014068199436
Cd 11.617781931882611 10.226443949893465 14.124290679208931
Cd 10.442055051089879 13.217223197721527 9.977204758994704
Cd 14.501812739806207 9.684500527437164 10.374032612360056
Cd 9.381847214046527 11.071931421930133 11.810440307325141
Cd 7.294580505490515 13.21096405877944 10.796241036479884
Cd 11.733958736077607 8.82097846793306 11.35664092896589
Cd 12.402555484398956 11.192655070223267 8.738571503361088
Cd 9.196230016590045 8.30563004143431 13.18837540873342
Cd 11.024830697804118 12.11743537276928 6.087187847020362
Cd 9.380077351805147 10.749092278756963 8.356041242531521
Cd 6.571644824610059 10.427844908707987 9.728684424427033
Cd 12.107512276268691 8.15414283354127 8.397372807439563
Cd 8.962207661965245 7.848276720955104 9.952391025445152
Cd 6.446851259039104 8.23197129927929 11.856189691448613
Cd 7.308088269244149 8.693007579390196 7.355208595032226
Cd 9.729050747860766 6.855859709717284 6.9941255809828515
