15
Energy = -4.28550731 eV
Cd 15.176619313715578 12.569113904226308 12.92477214080446
Cd 14.029713987967128 13.829270848091785 10.136849331346632
Cd 11.84489393574465 9.175061822282869 14.918764788830963
Cd 12.478300234856334 14.443671809186155 12.724161292634765
Cd 13.51840711616001 10.793893886884902 10.047046943861806
Cd 12.23004046739289 8.282486149981729 11.139205061453987
Cd 12.25509572936112 11.385596140120736 12.826754889444379
Cd 8.583509010487479 12.992246523084274 8.675201310967806
Cd 10.83231934680527 14.89789143082351 10.100094309920058
Cd 9.135371996526457 10.364329189987942 13.498417045411776
Cd 9.683018982342755 13.105165950826668 12.317970122698668
Cd 11.84016532165733 12.69118425684329 8.203065128931764
Cd 9.058184740068016 8.147140536943056 10.268353343164806
Cd 10.38624258803899 10.915993515705537 10.225885212390704
Cd 10.04878235441042 7.507619160545394 13.094124203671887
