14
Energy = -3.95274736 eV
Cd 14.656290979963934 11.8422644472125 18.624095330233786
Cd 14.589208201032935 14.835767905259633 12.942986212730613
Cd 14.274616572261992 12.1867588465387 11.416076072533643
Cd 12.225013535209246 12.517398108275943 16.613773579024812
Cd 14.305133838820122 10.455774270092476 15.620795418829786
Cd 14.186136055244022 14.917209849609387 9.817258775615056
Cd 15.095050297852822 13.382241442697742 15.59909942372885
Cd 13.280131063125692 12.264505226775588 8.483506981272267
Cd 11.938802067830368 15.84409303775225 11.834534546316839
Cd 11.93902396155321 13.139663987590321 13.462334549284733
Cd 12.738678912759864 10.072621094329037 12.99896983564101
Cd 11.116794860830112 14.305360963580144 9.160152609707742
Cd 11.2451586184856 11.54634230051892 10.787791500874778
Cd 9.502013648161174 13.971519287049231 11.77808427153138
