10
Energy = -2.22520928 eV
Cd 15.370737286068247 9.93914074426619 10.966025349454503
Cd 11.557552604011748 13.658524813700028 12.81944601722706
Cd 14.818095943907974 13.115065275262864 12.682048598505967
Cd 12.941714928005894 10.436725264649592 12.98749288797991
Cd 13.061839704726465 11.986187239816656 10.123431679821262
Cd 8.284973865416625 13.61412437240543 12.671447730365465
Cd 10.270657905590365 11.287810499635182 14.653221313344964
Cd 9.967305769560024 11.213180938409632 11.402542722123
Cd 11.961734265627783 8.919621078446863 10.229131229075081
Cd 10.506074264954632 14.027171534609353 9.791153768194972
