12
Energy = -2.89046253 eV
Cd 10.661548187236686 12.32186182514338 13.60289573343666
Cd 10.59275424313103 11.49425587654284 8.869043581952317
Cd 14.321188312960384 9.362694542792507 9.999236837309104
Cd 12.053639294022704 9.6749978847951 12.925767567195171
Cd 9.841314344905083 9.247276686246318 10.839005019331983
Cd 15.136853086400803 9.232431637585085 12.976251872285864
Cd 11.779401507431148 8.589363814052408 8.527163393841807
Cd 13.828732945779679 11.912279382649047 11.710946108344451
Cd 7.635143633142291 11.216000866618472 9.687476660579351
Cd 7.940766412380211 12.945085714604115 12.163935907584063
Cd 11.432882422634066 13.630944824136018 10.914869465181678
Cd 9.745580078968713 15.346711158202668 12.86780292083325
