10
Energy = -2.20708122 eV
Cd 11.741446265734677 9.445539932541244 8.551347163718141
Cd 8.763618899074654 8.049371175836251 9.007660657310433
Cd 9.251683430018824 11.24288599164491 9.646422327748617
Cd 13.728170558171024 9.59688801680156 10.973095859721026
Cd 13.170868773461136 12.261605848740112 9.335940586348924
Cd 10.658204823821471 13.907504874474636 10.782310746962677
Cd 12.620675180631617 12.194686514951314 12.627594883230332
Cd 7.2369215115276955 9.50992409810899 11.815549357534206
Cd 10.578458927493116 9.063873355664903 11.58353840012585
Cd 9.404093246762761 11.881861807933335 12.830681633997044
