18
Energy = -5.76952931 eV
Cd 13.630475961163398 8.096280855724242 11.438511168471232
Cd 13.191300973620898 11.051249709120594 11.861853134340727
Cd 13.797905742044923 8.215046273110051 8.408792890010908
Cd 12.764943673468542 9.106945735695843 14.235465899542705
Cd 11.828117761791727 13.369614486622712 10.644446922396282
Cd 11.997741949031115 13.365235202013812 7.567125593304712
Cd 11.930992689672165 10.562722991891983 8.922665190406715
Cd 11.14729274914433 7.287288424500879 9.764448553058232
Cd 10.095529738102366 10.929852199195844 11.417135890905824
Cd 8.903575669057998 13.685236388267027 11.935042443816602
Cd 10.324640873512054 8.245826646012919 12.680546707024348
Cd 9.460449449893376 11.792096044249178 7.254448135711324
Cd 9.390819493371884 14.321397027254338 9.00494953688636
Cd 8.210810287262438 7.047254844389937 10.835111708124096
Cd 9.088263061246982 9.263179673740742 8.661892248910513
Cd 7.259650082566059 9.605993752881423 12.472967670787797
Cd 7.579426102070538 11.746168519031878 9.86924546429916
Cd 6.092971540203426 9.003519023520655 9.72025863922593
