15
Energy = -3.63853859 eV
Cd 12.620696451871142 8.393538858194129 8.094366289522194
Cd 13.238258692266527 11.607991600843185 8.002197534539764
Cd 11.941284671315298 14.084145639317784 13.64653463171846
Cd 10.763079818528363 9.599009523452276 10.211398845038817
Cd 15.484158826280948 9.514745169144003 8.58434581966945
Cd 14.365388668853265 14.220646422830452 11.938620404976225
Cd 10.69756474524299 11.530405359898403 12.548177088716713
Cd 13.412380240000916 10.89017507427177 11.19859863282557
Cd 12.057672772696995 8.693500218944497 12.968404753728825
Cd 11.592726579922353 17.036388014663995 14.577237756444648
Cd 15.814399174044183 12.277322627488559 10.002828051507828
Cd 13.007166118493052 14.931564518626692 16.470644579970767
Cd 8.49151164756533 13.62052390966211 13.229988140055617
Cd 9.571734284092468 11.686375437677132 15.436392660391721
Cd 9.834133159601462 14.805823475760663 15.982420661668664
