14
Energy = -3.79648 eV
Cd 11.505493726283266 11.513363955025977 7.053290008565587
Cd 8.375598881955048 11.007455905417542 7.834942276190089
Cd 12.831706847969485 11.546970964832765 10.30421749059228
Cd 10.805023749666383 9.53287044280607 9.261327898157576
Cd 10.32568723882248 13.153342598842872 9.247983661233585
Cd 8.021835441515165 8.439097587932507 9.835631402915718
Cd 8.053127794566828 11.166871166874001 11.043102717747907
Cd 10.341087331335732 9.366615077060867 12.264211336316917
Cd 15.43684099592552 11.525828827625041 11.930031024085835
Cd 7.811060467589122 14.117965772882078 10.576671920638189
Cd 13.77076413072817 8.752469982886945 12.202669819172064
Cd 10.425742711567706 12.678672371076038 12.279410954136365
Cd 11.826495508817917 8.420986230220544 14.784370070719596
Cd 12.929956837713055 11.237910780972584 13.842561083984158
