16
Energy = -4.92659388 eV
Cd 11.792046820163902 8.361304233576654 8.327216776051106
Cd 10.23995749355191 11.195953054221118 8.386472280270823
Cd 13.451348531755604 10.913137372715303 8.315100459706464
Cd 14.928836508493033 7.961019983276795 7.723635336452481
Cd 9.251611007494997 13.434217397447126 10.283562831828803
Cd 8.859093816308835 8.372440790200093 9.007897633978196
Cd 13.620726894293439 9.107217147884215 10.786210071160403
Cd 9.22216878769336 10.419304438759376 11.286368681770917
Cd 7.08427239426909 12.281798976360426 12.385163222247959
Cd 12.098017481416193 12.057848008098379 10.822897607325313
Cd 11.660696017008178 14.944487854934046 11.70400372825238
Cd 10.841718974309137 7.583353201778947 11.267772256868126
Cd 11.702425039301774 9.974000461467623 13.05494147669232
Cd 9.145564210232715 14.288820278879118 13.342011265628233
Cd 9.247437888455462 11.304652979948344 14.402625940671884
Cd 11.975819584561622 12.922185269762084 14.025861880403687
