18
Energy = -5.7914942 eV
Cd 13.338704176419721 9.179378576138628 9.930835649433645
Cd 12.40510729383717 6.249089000669513 10.437737254859496
Cd 11.867621494743887 8.480719036006017 12.55376628701224
Cd 12.053755509831328 10.47754338895032 7.191740749789191
Cd 9.438047055136565 6.956120610863596 10.72528356827428
Cd 11.044572092158845 7.708965118792482 8.079054320596015
Cd 12.43372301229088 12.04707573735933 9.818493937138582
Cd 10.670911270094344 11.502674289649974 12.470726815295436
Cd 8.882604016336952 9.035398822752311 12.923851791989206
Cd 9.88588396566215 9.955681262778995 9.93724635827204
Cd 6.480337683507785 7.6988620697084125 10.919473944572216
Cd 10.231613270851724 13.901249071093781 10.674803382726786
Cd 8.045985390418885 7.591526257879528 8.089840195707735
Cd 10.409817332432603 13.067601479741946 7.384537865497557
Cd 8.916459070258417 10.450635477870778 6.882732392266421
Cd 6.869400986550996 10.715711034503743 11.432239064315036
Cd 8.061406034334269 12.417098279250045 9.270274728799311
Cd 6.2367974298711335 9.943618302077708 8.528139047790736
