15
Energy = -4.35787356 eV
Cd 11.871554921417236 11.145911601727168 7.357202102793519
Cd 9.490500074157914 9.644623552778507 8.817977408600951
Cd 13.073698534452983 13.411191223516234 9.260792538906786
Cd 9.867364865761703 12.650680266210694 9.2909380071124
Cd 12.333320622803942 9.057930542906231 9.857993474744896
Cd 11.34789243933032 13.60763382255816 11.767720964566957
Cd 14.6394405594662 10.815426874250436 8.828579864224544
Cd 13.548948125396697 11.318760153014846 11.733544495864209
Cd 10.32352590222288 10.568840617176676 11.72756951530868
Cd 10.71613279408021 15.464871917153422 13.962835221555984
Cd 12.859022780003565 13.513065002576084 14.816891970733113
Cd 14.822268114872122 11.229425638370795 14.460771189805953
Cd 9.615934667147275 12.734102588245694 14.60847009139011
Cd 8.852576544930296 9.822415340529249 14.23694769836539
Cd 11.8996961593051 10.276997964334099 14.533642561375038
