13
Energy = -3.55850298 eV
Cd 9.673090960189583 9.84382528466695 15.215268702541236
Cd 10.625122161136407 12.104935631335195 13.359183522973625
Cd 8.054962648604539 9.774531436360203 12.571321284284405
Cd 8.318902885918924 12.115808572869465 10.491235769917369
Cd 13.15916485780744 13.73212482103366 13.380583566082043
Cd 10.917302463140597 8.380835979705536 12.769674505933402
Cd 13.542284344251144 15.244026533122286 10.582661311487701
Cd 13.31952373336475 10.540935663688813 12.827474926083509
Cd 10.83761606160972 13.850773356569013 10.866795261405544
Cd 15.047242700866192 12.609922052866422 11.053463919254556
Cd 11.106813712299935 10.819702826443194 10.392109666759442
Cd 13.929725102092778 9.96584264887867 9.820955825550367
Cd 13.010714502214666 12.76665002634133 8.640486227779544
