16
Energy = -4.96490303 eV
Cd 13.658520081335702 8.077885421655129 10.036548710310223
Cd 8.163676398206892 7.994004438819253 6.315412727036968
Cd 13.210318261663234 10.173125235736931 7.869065379162396
Cd 12.144841368372232 8.948627310591514 12.681121369706263
Cd 13.272837264846817 11.17563835151058 10.781531771764811
Cd 10.911879255330879 6.9162427506925885 10.552470842139211
Cd 7.964820651414156 7.4031111077280904 9.46543916905453
Cd 10.670520396284699 11.707996834380669 9.227022303823231
Cd 10.552845696336258 8.807346940246395 8.141687732336871
Cd 9.45959251800564 9.507107293588357 11.144763511607996
Cd 10.902408982002346 11.838945805629322 12.57057220886176
Cd 7.578124621867422 12.171780269046328 9.699639194175028
Cd 8.675411933440953 11.054896693955701 7.018943880972008
Cd 6.224536549148233 9.593069416795874 8.162905087643963
Cd 6.435424940271308 9.706731560587166 11.24469609670839
Cd 7.8651721658231555 12.491755339677407 12.810185522947995
