11
Energy = -2.72887583 eV
Cd 9.930573277625962 13.201884065250008 8.67716770792997
Cd 12.167272907256102 10.806974439760134 8.626146325956507
Cd 8.233441552396041 7.116172958521644 8.573120427822838
Cd 7.646389832084684 9.009723484263034 11.190315796491216
Cd 10.945341435542392 8.232385273742342 6.993732323859065
Cd 12.933881831698113 9.932356969781967 11.701269713697545
Cd 10.803559068555748 8.104609680169231 10.184199976841029
Cd 8.799914051103643 10.243986031407255 8.23426132855464
Cd 10.196627249847845 8.823811171714208 13.240779259528372
Cd 7.19882050506709 12.128155771616102 10.250545380465
Cd 10.114341788822525 11.370103767450294 11.29862548620581
