12
Energy = -3.13963281 eV
Cd 11.34812992239211 8.518653839786474 8.044842620111051
Cd 13.30985151047274 11.084332958801014 7.942381267627649
Cd 10.589948465421445 12.160044668823554 8.37264527603197
Cd 8.993931805853105 9.810471519452536 9.622524688048003
Cd 7.6610915737121115 12.590921249882054 9.573576944133093
Cd 13.3849147504145 9.195124574073997 10.394542457046017
Cd 10.04310403847983 12.066406963620262 11.461250545901336
Cd 13.114682360273411 12.369978818161693 10.885895876660658
Cd 10.631201625812242 7.851206332886251 11.218963774924443
Cd 8.617546120817057 9.175802377069285 13.46647184080172
Cd 6.650786276715219 11.172422934892069 12.15160846931906
Cd 11.748504008868652 10.098326221783811 12.958988698627453
