19
Energy = -5.98509007 eV
Cd 8.563187337048507 10.25052989757205 7.947441199250974
Cd 14.4311254370237 12.049619521697407 13.582173611198519
Cd 9.679186757078975 12.9876317019257 15.136844345182444
Cd 12.315101664512623 7.488536345600148 10.971640218500696
Cd 12.509383282447555 11.767392602348389 11.251338840809895
Cd 13.083215172965918 9.328988263438795 13.234254558281696
Cd 9.455884207104653 11.97170970756754 10.378613539851283
Cd 12.207608521538159 10.310923114483545 18.435215642486988
Cd 10.285772582357632 14.708837662061843 9.215923132703983
Cd 12.474173531494543 14.205829927477009 14.701583477982027
Cd 11.387500721546639 11.445132255604154 8.018122727187945
Cd 12.136157087301306 11.101273493747206 15.470167579778161
Cd 10.201179691110507 10.752741338056317 13.095424275012071
Cd 9.754042424875928 8.872098645338697 10.534434177981687
Cd 13.484500001397413 9.611939579852992 9.278271531997763
Cd 13.670983849039915 14.62732503283335 11.950957579589456
Cd 10.485738003713593 13.97218285742294 12.353992630247175
Cd 13.169107995563202 15.411425517336186 9.107749750573012
Cd 14.141829164480122 12.571559968237636 8.771528613985105
