17
Energy = -5.10591752 eV
Cd 11.91227586859501 13.798080361793144 9.645044565570926
Cd 13.33931477484894 11.052320871382731 9.986377645365748
Cd 11.109209297231391 11.61666808386901 12.003506822699423
Cd 12.999679044392874 8.264512412687257 11.17785265493973
Cd 9.594991289439964 11.964698427282066 8.897414601556793
Cd 13.072537552806804 8.555858232896172 8.036889857359627
Cd 8.169265583463337 11.088484204167623 12.689567991772986
Cd 12.311937475764482 11.582037171445366 7.114579462468645
Cd 6.792390290935112 12.21469657706493 10.217507569661713
Cd 10.220416471053813 9.198550395052228 10.30016297965337
Cd 8.730799569130712 8.030663457094 12.721339578113373
Cd 11.116100698019332 6.2149171309857305 9.170066289432203
Cd 10.251051017656424 9.365623297715874 7.143794629140516
Cd 7.53295618590705 9.803174885831575 8.354108981686514
Cd 6.239963670487289 9.199122357694538 11.114152165342253
Cd 8.068723741557701 6.982728059932529 9.812941130736666
Cd 5.406126372687775 7.623703063929756 8.162777139330073
