16
Energy = -4.91732911 eV
Cd 12.603922089626398 7.8898830416649 10.139371874675994
Cd 14.496768013509886 9.9018415230082 11.569309266185462
Cd 12.039615068439119 11.112450891115422 10.26443208590672
Cd 10.48532214836628 6.5093803279138 11.98886685586455
Cd 10.979948151385782 9.427118518747523 7.97070054511288
Cd 12.841193332319586 8.04294434985002 13.346624655882056
Cd 9.454973699687182 9.027898489662757 10.586784211284893
Cd 12.286064644355275 11.146735402568309 13.450604193973525
Cd 10.500675824728763 12.448447689987336 7.644863510926945
Cd 8.03734317745774 10.446122632910521 7.989570650022038
Cd 11.050420918505226 14.041856258315704 10.282303311533884
Cd 9.895592657543549 9.109923024215755 13.690139800971803
Cd 8.001463033367067 12.602333731472447 5.660371275425445
Cd 9.564368955326433 11.786461638334014 12.16197379512308
Cd 6.875729024582996 10.642607685886752 10.871037507865134
Cd 8.164322350628712 13.141717884176517 9.660769549075138
