13
Energy = -3.10261251 eV
Cd 13.56376433408295 15.932567994661271 14.469282264748012
Cd 13.565743812062466 10.1211611667715 14.469560519150154
Cd 12.810432526728354 13.024533738894823 15.836429074377241
Cd 12.48410134151175 16.102774816360927 11.319681056691836
Cd 17.76592519426208 13.022678272228559 12.268564755263803
Cd 15.191371663329722 14.643074840597329 11.760411116141503
Cd 15.559943494908138 13.025770211667076 14.458120246907724
Cd 15.18893314806185 11.407175859922035 11.76003763616626
Cd 12.483882694713213 9.945444362902242 11.319488038410192
Cd 10.764182175212657 14.659191685468551 13.815901650637587
Cd 10.879839614984757 13.023450089032245 11.075215944138444
Cd 10.765965144339992 11.390859719980375 13.817211370387229
Cd 8.297180011239243 13.022906730846605 12.951685816314134
