29
Energy = -10.27071688 eV
Cd 11.929418918506508 10.449539048515298 15.87737377099976
Cd 12.695638000339867 17.025478220920427 11.113453936292075
Cd 10.160144619847218 13.442246525971953 9.357760513716384
Cd 9.604087682540436 9.191562012055037 9.718536932910332
Cd 10.061950661677054 14.63816698491575 12.418485679470253
Cd 14.57512145914188 13.812543806529623 15.759568401825922
Cd 14.427599323812926 11.082101925229406 13.61476857301919
Cd 11.88764113647179 9.92946610130636 8.066371543874837
Cd 9.370892274944415 11.60149235670398 14.645122970020735
Cd 11.859685038283176 7.498641433772871 10.595508936641892
Cd 11.341865418530313 9.750298577346594 12.878043524121344
Cd 16.168562541516685 13.651440225583933 13.209807821809758
Cd 14.724974285835158 14.52047881179121 10.568078707013116
Cd 10.010127045292837 16.429629009729624 9.922558867539918
Cd 12.07618284085217 12.444123161743999 11.681153112375902
Cd 16.114335817905822 11.80034606195792 10.82123221890799
Cd 13.843601233427854 9.964198438428264 10.65424858417835
Cd 7.384406097952941 13.414588934446826 13.120471354528876
Cd 11.494002312495168 13.54150122214378 15.267717897415679
Cd 17.33599410189951 12.026465428951528 15.757350105105273
Cd 14.43113366023681 8.650577044820409 15.53454416406595
Cd 12.51836237646749 15.428132983673775 8.463086449682528
Cd 14.578998872928086 11.209258704508528 17.157745175324678
Cd 8.064202914333526 11.554318344690117 8.534020616138545
Cd 13.124907241193513 14.811158321839926 13.14675861144818
Cd 9.042823735937914 11.339541721729482 11.608995542626245
Cd 13.078765769484493 12.483872296764329 8.866094879847909
Cd 5.9979741139895 12.287514190996086 10.588757085033443
Cd 13.832691946871348 7.757409545650234 12.78847546678342
