22
Energy = -6.95532139 eV
Cd 13.008709546421882 12.38361530307378 6.976290565755624
Cd 13.450511403028564 9.597712729775546 8.087918824459587
Cd 12.756577491243117 6.411280516576693 7.494023714626908
Cd 13.17088798198595 12.146661842597444 10.010032914096719
Cd 10.216563010245178 11.947255570276786 7.8136592291269595
Cd 12.438222988241403 8.118755137624513 10.52212728131112
Cd 10.453779593157364 8.58326625181972 8.117102318638404
Cd 13.272066257914634 12.233475248259928 15.296914105430574
Cd 12.799040182156977 10.497088324028503 12.856757148417522
Cd 13.762486713382065 13.575823216068269 12.586286616543509
Cd 8.378472366427296 9.744725127756181 6.106236308028557
Cd 10.552349702436455 13.741230563196776 10.6691777576072
Cd 7.905864152580011 10.600621547091729 9.168929673823904
Cd 10.433847184049444 8.39874461315737 13.251701938528115
Cd 7.229776737368787 7.491224807496827 8.740464813327552
Cd 9.535785197359534 6.801872980554144 10.70574522151173
Cd 10.960956493999513 13.610894078894662 13.8886884006077
Cd 10.508773570467056 10.637523820631971 10.729066783024692
Cd 7.589854068187775 9.001289099718026 11.814653388264665
Cd 9.278860541422244 11.140587077456939 13.56136769596458
Cd 8.239643259351093 13.93057780157271 12.613510605031582
Cd 6.434990052108949 11.892475689248128 11.423106447534122
