24
Energy = -8.03066396 eV
Cd 13.878813691670711 14.657332525435143 10.386487328213969
Cd 11.725068981783227 14.535341219853082 8.347834330895758
Cd 9.478938384545508 12.970204384156258 7.105743110295194
Cd 14.187002379958985 11.63849154805174 10.887609243403858
Cd 11.667841241417557 11.191175235036487 8.648810140794499
Cd 12.01615019305652 13.114375298839308 12.35047397344913
Cd 6.863584899106969 11.757587543883647 8.094481741967957
Cd 9.682144770985559 13.072391963574185 10.201464883758414
Cd 8.944441166966913 10.062163614038031 6.642527820986308
Cd 10.920651797470086 8.302233705233467 8.029766921824928
Cd 6.181623344113786 14.589229839383572 10.90655676402733
Cd 13.631114339999511 8.677071709754973 9.875865955408882
Cd 15.321314630560593 9.339758405616031 12.452441847081195
Cd 8.509598310437013 9.323981228690815 9.755503056222624
Cd 7.167414344432221 11.70797134148473 11.040696656822341
Cd 8.985158090606635 13.05441416122152 13.236124070629366
Cd 11.208337560771554 10.121822853374074 11.401340155527189
Cd 12.745181955127938 7.590101422816206 12.835563034102538
Cd 11.022803438542313 11.126837980726728 14.4215471907249
Cd 11.787926799288504 6.244630612671475 10.226011136510154
Cd 8.761303474612301 6.331039545417993 9.429449290469831
Cd 13.554376487734132 9.776428850043958 14.847957797059852
Cd 8.497568478842965 9.897632265668422 13.170956684982054
Cd 9.686999498561413 7.345591107349394 12.231456657281674
