29
Energy = -10.35003356 eV
Cd 16.441492351171878 12.381298202938073 8.35682510540072
Cd 13.034184655724538 15.557003514817056 9.327520664787416
Cd 10.77518204545876 13.688213185516485 8.3341008309544
Cd 9.390444378877124 12.898178008000748 15.367013595715509
Cd 10.308776957644923 15.605685924985128 14.516402335388602
Cd 11.482121720059078 11.870736120024072 11.339592511799559
Cd 8.878611256711961 6.787410461637137 15.306314228973768
Cd 15.741963633176134 14.562858284567904 10.327217949461836
Cd 8.537150148063718 13.018244592697657 10.159920239549947
Cd 8.061742948908933 14.542778563438603 12.718695898069754
Cd 15.98303801415027 9.929978831018799 12.539560234452521
Cd 8.439755011072204 9.841944626502643 9.962962893991374
Cd 8.379406083616908 9.903271115153165 15.475043921042136
Cd 13.41840771015327 12.481220437038353 8.95484539571375
Cd 14.410073063413055 12.435082358110352 11.95577169544655
Cd 13.301709410653212 8.76383675552862 13.362371971700362
Cd 10.897856527124056 14.91679159621089 11.422999672386728
Cd 13.736031938452022 15.910043301452355 12.264030299760634
Cd 7.2270571501307055 15.45061885105595 15.62220130998485
Cd 8.010048127315773 8.36536855727444 12.717500361238194
Cd 12.477226140537523 13.525158613007243 13.961634520762763
Cd 16.613779740305173 9.556720486281003 9.606223533713637
Cd 11.238083755572804 10.699047487333836 14.252002944028623
Cd 14.295250722132865 11.251194006057741 14.98216654962753
Cd 10.856267557182601 8.752171046984106 11.58344901264816
Cd 8.577717580118179 11.466208867876132 12.722071973314751
Cd 13.561954686713145 9.752572783465482 10.391690989902184
Cd 17.546173902770015 12.215669885882251 11.286817155490345
Cd 14.592016392839822 10.084217145193064 7.396575814743195
