28
Energy = -9.03720548 eV
Cd 14.115609648233612 11.859585071576884 12.069002512202726
Cd 15.300649781057864 15.193025468483583 16.435808777682677
Cd 12.42345458520305 16.19513492220612 16.179069409072078
Cd 13.03739833615187 14.520397511671431 13.666224700066023
Cd 9.808867124496828 16.958592113304796 15.10639743782805
Cd 11.259987491572252 12.950832623981723 11.585196032039109
Cd 17.122493702582048 10.934659485165104 11.023066871126684
Cd 12.99229985749923 17.730922577675802 13.58533571387761
Cd 16.122313161528176 14.190903871749928 13.7686207361499
Cd 14.849121749556403 16.237830511267056 11.606652179917324
Cd 16.818413168337766 10.648506710703982 14.119322754458748
Cd 14.621546792770793 17.585445391035858 18.508109482186477
Cd 9.376885464586401 15.073181544091732 12.692409664923684
Cd 12.391023408376606 12.400359995412737 17.42122307222743
Cd 13.694055515976865 4.6725381289652725 6.608780491771358
Cd 10.230262770455345 18.037162183340797 12.35597145917927
Cd 10.564105881237124 13.870313077370676 15.275470292381224
Cd 14.448774032435484 12.215311934693258 15.284718339025932
Cd 16.58164471098904 17.156199101289836 13.89964326846677
Cd 11.702141665802298 10.076349032541666 12.24055489924781
Cd 13.249229124570045 14.845503425159798 18.757678513324144
Cd 14.97816398579989 18.66310117594831 15.814909531987599
Cd 18.758518428846102 12.892106816291323 12.736728172101035
Cd 16.215099013786553 13.841800154973148 10.57112559677287
Cd 11.516266150461385 11.035656605032887 14.92995121419045
Cd 12.207998296543511 4.740290261936884 9.546303915455214
Cd 11.976494420974184 15.915374407780215 11.112810536338884
Cd 11.507969448638178 7.429703614817714 10.969702144468409
