29
Energy = -10.36977855 eV
Cd 12.496586119864073 10.04820683017948 13.721210929629054
Cd 11.44034858826954 12.852906010093951 12.692746334842896
Cd 12.363003733286885 15.755725648392705 12.31258669451709
Cd 14.742943484565245 13.105168089556827 8.707491485020228
Cd 9.61184026104397 9.373596419924704 12.907639499324894
Cd 6.513096854853823 9.418132671607408 11.749708494512122
Cd 5.76469278356149 11.947349771149929 13.360101318810457
Cd 12.7281422022347 15.3841821882634 9.130403101971805
Cd 14.10599392068776 10.21393651980704 8.319340279123567
Cd 9.161226706232148 11.40970802627463 10.55746884291122
Cd 11.872126809807773 9.378307051529672 10.842606762440443
Cd 15.066272602015227 9.001899057157322 10.93382047652792
Cd 10.14642532051766 14.695401420205217 10.535016611944805
Cd 12.477827403377097 10.293200013931376 5.771683745381305
Cd 7.9994978482063175 13.62639906485127 12.302897084185288
Cd 7.330412696387276 9.778109951994415 14.792976983575882
Cd 14.924959165692828 11.866577822475067 15.883360251990805
Cd 10.580949602950545 6.908252023542909 8.449775305942428
Cd 14.31801667756213 14.011966389916799 13.94157285871007
Cd 8.65951819052426 8.438352646991365 10.00721547361453
Cd 14.192853909900089 11.907744314307763 11.51993731699957
Cd 13.39361413373577 7.275069623463937 9.23610379110205
Cd 12.010321359631906 12.406326469334326 15.753704401562258
Cd 15.615548396271263 10.197993745350383 13.568163822605687
Cd 6.159089159288157 12.135885142803893 10.288617547951432
Cd 9.188747659942566 12.106749245117848 14.73432212531108
Cd 11.85394168828401 12.316851712331603 9.468352211515155
Cd 10.353085664593962 9.99951017286484 7.911655006945661
Cd 15.05128460985289 14.860547127887163 11.161470853491712
