24
Energy = -8.40660756 eV
Cd 13.26340996806077 10.330747234752662 9.686217465725273
Cd 13.154353006448215 7.349033381723126 10.394684912541695
Cd 11.682570904350472 8.298319437245981 7.943955415927521
Cd 13.787110335149677 12.049013750667404 12.278781232083988
Cd 11.561395669864245 7.383645342483973 12.965693209636182
Cd 12.131425563170065 11.785585688236177 7.158869882748272
Cd 13.984842431416721 9.139952282869054 12.760322866833867
Cd 13.711303499707842 13.327863606387762 9.4629968257671
Cd 11.09863291559394 10.769198951096206 11.688155744612606
Cd 9.98150298743001 9.962296952722767 5.979279749153471
Cd 8.993507752250828 6.948437220649674 7.5935290629750645
Cd 9.89701138192821 8.133466646286793 10.418386405603302
Cd 12.268136024829001 13.037334220766054 14.707323483816722
Cd 11.840793432662998 14.370407332192467 11.841197115985652
Cd 9.110765423806907 9.11434593088053 13.192940448396731
Cd 9.580349608438919 11.933340163283244 14.195750340439192
Cd 10.796160092228343 13.93930968425907 8.960912436318669
Cd 9.115529350012396 12.982833874249286 11.264089881589177
Cd 9.813413093293095 10.947085819467873 9.024139401047934
Cd 6.243217714710539 7.422127959184643 8.59982421669277
Cd 6.858499928727386 8.687252842308089 11.211716102414048
Cd 7.049144198517128 9.779261059208359 6.821008977791124
Cd 7.0107273495033775 11.365694611938236 12.622877045062397
Cd 6.907976879369193 11.348632667447948 9.532162086871475
