27
Energy = -9.61265261 eV
Cd 8.377691355465133 12.361656610197704 13.397498812316861
Cd 12.249571883573504 9.604627848964455 13.566449746026409
Cd 10.635402346149522 15.329153353645024 15.291482759246643
Cd 15.331014163079963 9.546735475074335 11.243425102680337
Cd 16.972755453720797 11.909504650577086 10.481499358895896
Cd 13.283843823074765 7.441935523243092 11.79845095274027
Cd 9.43659774051647 8.100211183990478 13.540537061752962
Cd 8.556229046462805 13.441456594404682 16.24468334135079
Cd 16.104167791181954 14.227345538094728 13.33244618500864
Cd 13.451530692596052 14.381620437154396 14.654445238689721
Cd 10.983578581485625 14.872004780555395 12.376070873259165
Cd 6.488020603019444 9.038342319969857 13.500153676491768
Cd 12.143460179579321 14.377818357996691 9.177497174559978
Cd 13.790805191428838 11.655607706482712 9.524628584767106
Cd 14.21145040808446 11.949228693456828 12.64312539163708
Cd 10.951610868558033 10.721062125727743 8.637332610863771
Cd 15.288029694009518 14.065675198137747 8.614273783498586
Cd 10.630573506773445 8.728632946739081 10.891721352140738
Cd 9.683381133290856 13.289989800177002 7.91956752516074
Cd 9.187765709054624 10.33725117472308 15.501886589391754
Cd 13.913876946477027 15.0207994977753 11.427642117174171
Cd 11.45551118813021 12.218468536490775 14.852148606193358
Cd 8.812476297483627 13.553977925896703 10.742910834117314
Cd 11.267831505750612 11.75121185829535 11.65878616987811
Cd 13.219333576983846 8.66717049880109 9.059019637696798
Cd 8.12072364402644 10.361305948677465 11.088843213447893
Cd 17.292546009042702 14.886984753751477 10.673252640013748
