26
Energy = -9.15496567 eV
Cd 13.025457197679419 15.069575544522623 10.143731795637898
Cd 10.11234130080901 9.902191718593352 10.998399016195652
Cd 11.64422123394821 13.260892502135178 8.059763695197203
Cd 14.321853678594975 7.745604091845366 11.026567245437576
Cd 7.932961307179338 12.64299300225452 10.091722453683062
Cd 7.674297189888388 9.832593243129613 9.136891045661462
Cd 12.359424207939739 14.430019662987576 13.044426982331615
Cd 8.46443989664612 8.265063862749905 13.359860316334958
Cd 10.74665352534724 12.938767526212267 10.944142847709962
Cd 11.877712107225143 8.163688083381599 12.810186795392646
Cd 8.294543635671205 11.615841709862698 12.847741054855085
Cd 11.67552398486153 7.340162277988808 9.670309472355862
Cd 12.727959728262107 11.28962682468407 12.751109423053903
Cd 9.052648726377257 12.02845180488113 7.359666264502378
Cd 17.740748790773804 11.420749744562745 12.502657414101185
Cd 9.70762640508799 6.044805457311495 11.509607743077133
Cd 10.579688719068102 10.234962962769279 14.583882004170661
Cd 14.686964997233916 12.877981329789458 8.925530092093235
Cd 10.394624594660193 9.318305894216364 7.86281257364419
Cd 15.150065170555397 10.556914655170322 11.002064687685392
Cd 14.914375247371916 13.385459491576215 11.987954969008731
Cd 7.995217631156239 15.320462000611991 11.445133664682368
Cd 10.112490624942675 13.205410044986463 14.652541332181535
Cd 12.582426651671755 10.726664718756405 9.446575498441096
Cd 9.934858510154351 16.162635273847506 13.533900290175724
Cd 7.141505271989761 7.435194418487753 10.746042739311997
