29
Energy = -10.67302302 eV
Cd 10.998448900228484 9.286322928399583 16.966683838452216
Cd 15.369235382156768 9.616016743708501 11.653305736516698
Cd 12.134934743869913 11.850551518483131 15.885538433427744
Cd 12.755885444422615 16.452628311936603 12.623774329612067
Cd 14.720297129968936 13.728560993653039 10.141664745484906
Cd 13.008049309577475 11.063295097748801 10.093179437197124
Cd 10.281021814352705 17.86360796311822 11.18362606447439
Cd 9.148616190967724 8.305104041616461 14.789971494917882
Cd 13.001856885701377 7.865420803206718 11.810765963216047
Cd 12.547219526665307 16.537369874215536 9.644575109785066
Cd 14.323917646549464 11.688792285498154 13.850588268092661
Cd 12.176924874143907 8.728578597425011 6.957027665902299
Cd 14.29955813539448 8.528110338909304 9.000668216491169
Cd 9.177669372176295 12.186018369620339 12.171198622558078
Cd 7.568851424825728 9.606950203585523 12.601450865021938
Cd 12.186874598566916 13.288478842031166 11.963875013370622
Cd 11.708074268263902 10.433736169721067 12.94971287527245
Cd 16.51662079372645 12.372874259758806 11.992327753591484
Cd 10.0323089186193 7.624906247903492 12.062804761219256
Cd 15.481911379861685 15.078661514986303 12.955468634369113
Cd 11.001249025613014 11.31408458894217 7.594211988698685
Cd 13.088228117428507 14.41088609751709 14.754454993667048
Cd 9.191291645872266 11.416554295014482 15.093303383682173
Cd 9.26090385033791 13.213808404524896 9.355940155003191
Cd 9.955673085663516 10.075016162366616 10.16659841244236
Cd 9.724885623016023 15.06185877135908 11.789241645866213
Cd 12.110022311894861 13.775224054100546 8.823033321596359
Cd 11.106311736168063 7.273929459753762 9.290687759620013
Cd 10.035833892794868 14.265329089724569 14.746996539279207
