20
Energy = -6.56820967 eV
Cd 14.199094414038125 9.106668684702418 13.85481317882848
Cd 9.834946127443622 6.746289744637435 11.451887746088083
Cd 9.30342533436959 7.475212170494795 8.523914899271787
Cd 8.833891842941142 10.488628352879939 7.586503715119234
Cd 12.465963386218535 8.903976109196016 8.796784416256155
Cd 7.119124485883477 11.870598115981778 9.69410419042147
Cd 11.072466672923063 13.500279558257823 11.462260267807075
Cd 10.912028550600846 8.743499624491877 6.276114467364112
Cd 10.273304641254992 10.684234681556703 10.285412766993932
Cd 9.730080184441592 13.431780283426619 8.569063293603518
Cd 6.967112960268177 6.196309886775423 10.265051030258684
Cd 11.966768691637087 8.797779558542253 11.873581768037857
Cd 7.607373042086134 9.137693954547693 10.941950078593033
Cd 7.2928367662116385 11.689433271377741 12.770601055927973
Cd 14.248792015398926 13.628379870974378 10.822142731041291
Cd 10.144831506347307 11.048060762344964 13.301285536160893
Cd 14.35895476622378 10.457953332974865 10.608823043828716
Cd 13.047994423537375 11.829042124706925 13.071593558941409
Cd 8.17170030674666 14.286793613129845 11.283218219083706
Cd 12.580316520873394 12.10839293844553 8.691900675818014
