23
Energy = -8.30888146 eV
Cd 15.675232735390956 14.127789247768723 11.431639792254295
Cd 12.675502150693182 7.218888916041425 11.574187278785095
Cd 15.961041777350289 11.746107502370148 9.608745325337948
Cd 13.5895304408088 11.010152150092976 12.300925680807401
Cd 14.575821215013832 9.21435465098359 10.220656587170426
Cd 10.680992267795038 11.15612805732239 11.488274867124028
Cd 12.360962445971797 11.457797964471844 15.429288009753874
Cd 13.898670001711354 13.585408678470595 13.661253644876181
Cd 9.823805988010413 8.264469634043406 11.090482409092436
Cd 11.984795852307034 8.400692065291281 8.834681320563318
Cd 12.691713029996121 11.403542452519217 9.080576698497241
Cd 11.633428659607924 9.120956266858112 13.636478740633722
Cd 9.489436923156736 11.241348204602193 14.375457827796835
Cd 14.050043836675467 14.116271987778514 8.890628435488797
Cd 10.956078143093954 13.884507914000041 8.35497552556856
Cd 12.005738574833767 13.960184550627153 11.264693189702644
Cd 9.692929719228864 10.333097335531708 8.750221844653424
Cd 10.976697766468103 13.942061205714488 14.297277787248985
Cd 7.635586150133088 9.190051084720785 13.139692445139953
Cd 8.222734794684097 12.918980648147324 9.32938587858881
Cd 8.935594408906004 13.474985202332574 12.214035052343776
Cd 7.092955244758962 9.511134731874078 10.121442425964755
Cd 6.455422460841452 11.785804135874189 11.96971382004441
