27
Energy = -8.89413184 eV
Cd 11.38229745066283 10.944635636476955 7.494937989636449
Cd 8.427293103723054 14.406580440167092 10.301351013816234
Cd 12.051230988602148 13.440779102163384 9.813184353374826
Cd 11.706754916951997 8.822017014579588 9.596626022550225
Cd 12.661999405815248 5.653015819028749 13.031546074172407
Cd 14.102809759980376 7.4379443253387825 10.979042192889327
Cd 14.603153124030326 14.774514654105044 10.939387035610693
Cd 11.997144149420096 10.881714225740563 14.880653769538549
Cd 8.985143725064022 9.157501038147634 7.922220159605238
Cd 5.897293500887306 10.17439813478945 6.769557851056008
Cd 9.837043727666593 13.623604037086254 7.696078845513722
Cd 7.371632411467683 12.160631719968382 8.639483952252906
Cd 7.840126663782099 6.703684971119623 9.731629190813791
Cd 8.874134559869168 15.208677109522817 13.10052406581122
Cd 11.13202768334437 12.974738070791838 12.849730698212621
Cd 9.985561774302013 11.232903391911005 10.483899665609753
Cd 11.442627704229965 15.85438282539785 11.529227031291216
Cd 8.457512304950406 9.180941054486041 12.12336371602534
Cd 10.324750444472805 6.725243888371944 11.436930932707083
Cd 15.09945081448424 11.772515456328518 10.59243071533715
Cd 12.769944635066725 10.473392755703767 11.864678641974137
Cd 13.683538886822399 8.331875247708535 14.002901815829826
Cd 6.545824717123922 9.428016813410187 9.810769988437242
Cd 8.095625129067788 12.200480620035423 12.807465240840612
Cd 10.494861970811403 6.2996847413611885 8.255314828351123
Cd 10.55582179146856 8.438560201229617 14.021331628150431
Cd 14.029006222903028 12.146311083534805 7.82163837191884
