28
Energy = -9.42468295 eV
Cd 12.103672993489216 13.423318670219512 7.728835780560535
Cd 9.406838111474322 11.020688510790107 15.666212188938225
Cd 12.476753100675978 5.212653765399502 10.460809479209573
Cd 11.521712090837063 11.79447025079132 12.73396100883396
Cd 13.446293733485554 11.476767195717413 10.248387379693389
Cd 7.979796243949831 11.454410373319291 10.425015653239035
Cd 8.881473311077356 13.933194985123018 15.503423068379949
Cd 14.133369300475016 7.994349251681428 14.099866934153077
Cd 11.47592819728731 14.07687118413273 10.882156138642154
Cd 9.875833524455608 11.40025071246855 7.704312356088147
Cd 9.106141400388998 14.081864345111956 9.05462169081556
Cd 10.79312099696792 10.014330542696852 10.189981659703346
Cd 9.014530898665301 9.921054710835602 12.804403877386509
Cd 6.550257539084522 14.485561516565065 10.632975497634467
Cd 11.139592016577105 8.767129775493654 14.706351552787838
Cd 14.245596749903514 13.52489274816005 14.583655660451361
Cd 15.86337623887222 13.058502881184271 11.884405832025964
Cd 12.035500797741399 7.9780360827122605 11.887399395094791
Cd 14.346939585974157 14.843410494320175 9.218071883233003
Cd 11.503872766638596 14.745772211835671 14.031551740597639
Cd 14.43261716923273 10.676711725831925 12.9675797306907
Cd 12.56375226497628 11.311441915501216 15.561999320249209
Cd 17.321772096505466 13.26385461070529 14.70894782588104
Cd 17.238185501643304 13.369512358036266 9.217812104587994
Cd 11.415645139132897 13.661404704222322 17.127620803478695
Cd 13.854377863298096 15.340849549539836 12.18265674998331
Cd 14.892469178271261 12.172565482955479 7.660337127025951
Cd 8.807850599454804 13.423398855185068 12.553916971171255
