25
Energy = -8.76983508 eV
Cd 11.612708780988537 9.637226308871798 6.80593879355221
Cd 10.76569220259073 12.152885055367461 8.645690772368615
Cd 8.752422406864557 10.200068088756112 7.489751535844586
Cd 11.35879398789033 15.319877982673319 9.628394177714288
Cd 13.898698724773862 10.237992273927437 8.602149471997388
Cd 6.737919746387925 12.093167906197783 8.563508658209017
Cd 12.380331534399252 7.644763436340122 9.11195742232717
Cd 9.965917204604382 9.168382463751739 10.138387223251852
Cd 6.892118823398506 9.099779649079911 9.718050669672186
Cd 8.588612605889272 13.963995395877802 9.915154700294648
Cd 16.03246213262518 10.849170661464688 10.531873165493169
Cd 13.59916669267941 13.110321956472967 9.390966664127093
Cd 6.416903611668064 11.476383850560772 11.581072762707596
Cd 13.209924362484916 14.211646087615534 12.193127278391144
Cd 10.289150182389362 14.550666797206633 12.498756271096804
Cd 8.140607024559186 8.95960355209488 12.614877072164536
Cd 12.21301287392823 11.029030908875363 11.173167419138599
Cd 14.746332332314472 9.473212561295634 12.939470380279076
Cd 12.243955686461055 8.106765263246782 12.106284202019502
Cd 9.396442003768158 11.724674749120979 11.879894102570473
Cd 15.451348288302752 12.48657226924732 13.04432470556193
Cd 9.964813253142804 6.5640576467886165 13.404472882203205
Cd 12.706813714273329 11.57035147029927 14.143223010505725
Cd 10.48686697357338 9.474841120751535 14.555623398409661
Cd 9.71821524608451 12.463792940157504 14.893113656141143
