20
Energy = -6.55410556 eV
Cd 15.721681662781414 10.678994174509747 11.32046675233113
Cd 14.128659941677139 9.71441692846885 8.967211547654998
Cd 12.967041671575702 12.106497480063904 13.446194854047892
Cd 14.258418942889419 13.21561645634812 10.820361638710981
Cd 13.23843629989361 8.883778607421785 11.978843714866617
Cd 11.9425324422174 9.731186222563636 6.890680114874951
Cd 12.510075812047637 14.964111641830234 12.827182364192714
Cd 12.413706297917509 12.420499109340579 7.9932806889937025
Cd 11.224208366867034 9.905429776627493 14.172510436591221
Cd 11.248007484409559 8.458390352213927 9.616624599249567
Cd 10.187248017078582 7.630361769263938 12.293524596561975
Cd 11.613257743119576 14.497712655822495 9.929632322021716
Cd 9.041322925177996 10.001024160477675 7.745695973232226
Cd 11.618181039721353 11.25617881406283 10.80414841173667
Cd 9.499474903920412 15.037926074678868 12.096999655331324
Cd 8.556961545760192 9.88068295759206 10.704793734154702
Cd 9.196402915981032 12.61825775424734 9.57116697790699
Cd 9.571566554530577 12.220026877664521 12.872778862535984
Cd 8.243550829654428 9.588239892197747 13.652823636113355
Cd 6.290254509594512 10.661658201418375 15.766069025705393
