27
Energy = -9.54452185 eV
Cd 10.420540069207442 12.294672072640022 12.62349064296324
Cd 8.721277810263539 13.530765481893281 10.375507821659372
Cd 7.187383601572415 11.459272738791082 8.81699844056958
Cd 9.701750793441716 9.805567068183166 8.17149154458916
Cd 12.744662876231777 7.6868626334619625 11.211547975042588
Cd 9.579108215285045 12.905116384968704 7.451693527990502
Cd 13.875200868106056 13.8543917007364 10.414531942009905
Cd 7.687519211407143 11.957650792149055 15.1086632873985
Cd 13.686423326370136 10.652884943571287 11.056900707996675
Cd 11.30627121826984 11.883870627247138 9.756759213193494
Cd 11.427665077786346 7.301761223086253 8.402326402435941
Cd 12.731335744349256 14.236139691630799 13.120142086735855
Cd 12.268324722743913 14.694269168211642 8.027375835051915
Cd 7.524127590702751 8.683862586227388 10.02684289430432
Cd 6.956835800860925 13.82461755621842 12.840917688966737
Cd 13.139414048801582 11.122965737523273 13.887470684220315
Cd 7.595233419473345 10.915061241201311 11.978371636836624
Cd 7.106336737687042 6.679632504141361 12.271590004982933
Cd 9.033929533234302 5.989883864041595 9.658412679771292
Cd 10.121294624424404 6.351832983330228 12.446766886549783
Cd 11.541583536635686 8.44281888668271 14.026531645597785
Cd 10.341145281624565 9.491343591560414 11.235795772314441
Cd 14.131293564488887 8.669184892790867 8.73032492652884
Cd 14.151260582539122 11.7903817413212 8.220866992546743
Cd 12.165229248621463 12.691770986505786 5.772673956259948
Cd 12.233287064340374 9.86368097581451 6.66687027793428
Cd 10.430037841873853 10.876998359652871 15.314799303740601
