28
Energy = -9.74188631 eV
Cd 16.226372001255516 8.136791274413527 14.409881304385834
Cd 14.624163200643533 16.213563237520734 10.418913802150252
Cd 11.759308959600501 18.383235207807086 14.746453230891118
Cd 15.636995505949889 15.078315864542615 13.369093300026227
Cd 14.063367367380728 10.288144385498791 14.37039166911965
Cd 14.313841565810492 8.157216411824132 10.006693817872167
Cd 12.90272676471389 6.848218966770579 12.351999216338742
Cd 14.127214845499935 13.274343453677638 15.271081194246358
Cd 11.357211270717661 8.848810806027661 10.733996205079693
Cd 9.173054729463768 14.895430700582166 15.523861281063184
Cd 11.299241774636778 16.205341046976894 10.408924964353362
Cd 9.755110196389833 13.686944305294023 11.614818103548929
Cd 10.16201310049566 16.33904768123852 13.160731567359479
Cd 11.693041612017836 12.02847808349085 13.883421183893729
Cd 8.852687474316808 12.07503221857246 14.976390528226023
Cd 10.470212096438342 11.561178608946056 9.579337596353904
Cd 15.364448095721052 13.185926675274757 10.971371400475396
Cd 12.936604836383015 16.067325457748463 7.887782980073736
Cd 12.689470882832016 14.48193436909247 12.540776102501582
Cd 16.18322641427853 9.719658711824632 11.79197583328339
Cd 9.507285886179854 10.5522688148548 12.318127692810144
Cd 16.472245779721153 12.185038697310924 13.68436852359972
Cd 14.077478563148533 17.658621700784373 13.001517417927003
Cd 9.304302458117684 9.125959807612132 15.080163913483025
Cd 12.076864303510515 8.212858487459508 14.846444045155907
Cd 12.096083329962934 15.41396159622599 15.66461723573949
Cd 12.763192982710175 13.408934108236924 9.335896894480756
Cd 13.322032595446338 11.087587293675572 11.37861602041453
