29
Energy = -9.81801771 eV
Cd 12.669004772117345 10.324797073813274 14.813726566306778
Cd 11.989661410601075 11.655076756945961 9.055254710828805
Cd 12.738613674264212 7.9149103551163 9.87086426813474
Cd 12.568756082943755 9.163587814331644 7.113379254549415
Cd 9.981953847085935 9.970637454782336 10.873545481394332
Cd 11.224195058407831 12.768148722477434 12.248763031227636
Cd 9.066482961558043 15.22513528469019 14.196156526256159
Cd 10.891419599720718 13.169112709622544 15.560239797457202
Cd 13.705022485226193 13.093572856724286 13.981641232596719
Cd 15.654836210101106 10.962341420980392 15.260191232575972
Cd 9.639206964457326 10.086722417241099 7.867467781629054
Cd 13.476445044166748 12.328302574014232 17.164160850637842
Cd 14.810081586251727 10.23318592033154 8.85125150341799
Cd 17.429372052853527 10.190416925264923 12.980973546007789
Cd 9.707343409434113 10.485872648175414 14.016442067994229
Cd 11.394351317314628 14.565935181402198 9.625137434088735
Cd 13.886173175304766 13.406830727808229 10.673050600126471
Cd 7.84044028770822 12.679670998736123 15.333439918488633
Cd 8.816995584211163 12.5963116054229 9.110486675936066
Cd 13.850321871009452 10.324962663249012 11.848023006720714
Cd 15.852967083229935 14.68830736126592 12.689812644912601
Cd 10.862335191577904 7.976700172016912 15.487595963100793
Cd 10.325745053175329 7.165106610755008 8.00953387584165
Cd 16.395305096405426 11.870929527811082 10.762858394035556
Cd 11.722336215044988 8.21427862961724 12.60539534461175
Cd 8.381043670240732 17.580640435438845 9.873078104792643
Cd 9.123919910255193 15.325899024809733 7.779833947134949
Cd 8.888187803202737 14.909387462559081 11.268640578631222
Cd 8.128929531433176 12.144665613900777 12.100502609867524
