25
Energy = -8.93337101 eV
Cd 8.271538833770867 11.585878758835939 9.00802359396446
Cd 13.3986100562147 14.397342677978017 11.152515059487635
Cd 10.754051466251923 8.698154576763525 13.722691221115275
Cd 15.402961244547491 10.006910313577649 9.9429361992918
Cd 6.371207959400434 11.226709694558169 11.321105760600632
Cd 13.08476926108878 11.549931572861247 8.367735562756652
Cd 16.108841269650338 11.742773736328369 12.321679155438149
Cd 10.46571910497558 12.304995357130094 6.9611304513805035
Cd 13.444161887817867 12.32974962879708 13.554466275874466
Cd 7.843408140605025 9.744676231857522 13.714361134399594
Cd 12.5198389703255 8.977357757199558 10.238850789750149
Cd 13.91342351817882 9.377031362026653 13.043245454460573
Cd 10.828555472816445 16.127904763727297 11.529730192345292
Cd 9.003267364291641 13.317418857431022 11.313216623132606
Cd 12.400346951270759 6.67154152019133 12.187602899922728
Cd 7.127496434034852 12.609538074610388 13.917560886612602
Cd 10.472022176665602 9.563881306429844 8.210159606356054
Cd 11.695076196998778 11.737738296100863 11.179622353124975
Cd 10.385828032193228 11.697590162894981 13.96376818325835
Cd 9.337343885626687 14.572696740169485 13.968833209141664
Cd 9.380183451146562 9.626804291759923 11.104989083573374
Cd 15.438026277093687 6.473985852011516 12.950071045858728
Cd 11.01793493243384 14.100631027800905 9.231563825243107
Cd 15.520408454680677 13.033045771147123 9.5661448280877
Cd 12.268571385111409 14.979304395002174 13.981589332014742
