28
Energy = -9.81391377 eV
Cd 12.769265828169035 9.723011749879548 7.820025316016118
Cd 8.588693300249977 12.751584191907193 9.061339878187534
Cd 16.599628399417337 14.455697675681884 11.249995193653131
Cd 10.912388307216418 14.481106076661597 13.83412876299056
Cd 15.755846402070153 10.15569086756623 15.676371198185374
Cd 12.564494640498886 10.594307171130271 4.713266521077541
Cd 8.341376978850422 11.311031009231884 16.09866610526396
Cd 10.278583304503924 10.481475484776436 9.965683644597023
Cd 14.350992140766492 9.382790245890334 13.084151552217767
Cd 11.380209999593417 13.882764379756154 9.523086226259656
Cd 14.369920669340077 14.265770011011563 9.332636393906775
Cd 10.495418545274882 11.640918564956202 6.915189239977169
Cd 15.525829213365851 12.155125441608732 12.84287673089627
Cd 12.538327278696917 8.722699071466977 10.62692083410718
Cd 8.97507879989832 14.53159231671833 11.465873546420253
Cd 13.441052785176748 12.549795241700652 7.116749804939857
Cd 12.682201075732662 15.516499014588732 11.732430700320524
Cd 10.437766424738705 9.585478685480297 14.595558201709437
Cd 9.653548266896632 11.669576194980477 12.653214356032846
Cd 7.896690960274606 13.626184142661508 14.24505420973249
Cd 13.147206950179829 11.725430264848937 10.847664962880534
Cd 11.985124392772272 7.543367475446055 13.235655235972663
Cd 11.465493749081055 11.336926942324737 16.78203619815647
Cd 12.542403041704565 11.836439117465979 13.839847540578619
Cd 14.659107535709879 14.892209552238864 13.911574427048494
Cd 15.708357447636857 13.12540677968567 16.178525776451956
Cd 12.863607063718 13.932698568737607 16.260618025201882
Cd 9.823157159712057 13.970320320245293 16.72635222975485
