23
Energy = -6.59873439 eV
Cd 13.40376632708916 9.341070654586133 9.851760828211628
Cd 12.44440012534626 14.961896385379621 11.83556346691659
Cd 13.495812926237246 15.426977860715377 16.076822500186395
Cd 11.597983480042307 9.830909516760746 12.532583195217873
Cd 10.066889462017548 7.948747133427636 14.626326503604192
Cd 12.58370325812705 13.075826291900094 14.383789163032718
Cd 8.842254908775711 9.828126326776468 10.851994290063564
Cd 9.595035681400798 15.398678681101737 10.460928092417797
Cd 15.164465922784684 15.170404979277606 13.500462851278254
Cd 10.342433112732335 12.45422363431651 11.010206592581211
Cd 15.58195515046637 12.953607226480154 15.610714848917155
Cd 10.889322599814836 7.563326193345214 10.187805990026524
Cd 14.403628407908082 13.259523786993702 4.791119649536963
Cd 9.021665929764426 11.385318555890558 13.691855181800735
Cd 11.751655315938384 15.551189201190015 4.574622626784547
Cd 9.930962113832388 13.097908781532535 16.090554433165
Cd 14.320188878508176 10.521176587368705 14.218470469643963
Cd 11.435713726556092 10.37889723849205 15.57314896626299
Cd 15.241780804917301 14.187417821931886 10.661556651257449
Cd 16.47471237304339 12.108343698683415 12.707060742902403
Cd 8.571797876211072 7.107872454123235 12.177223004883661
Cd 9.763149354094448 14.502892752232983 13.440582250144622
Cd 13.508170837348063 11.94710709199963 11.457681161706194
