27
Energy = -8.76363214 eV
Cd 14.795230288951199 14.594631920864625 11.073440101592476
Cd 6.600557626808216 9.120448517223567 12.42195562987938
Cd 10.634375446212983 13.15534110965735 11.26042425953188
Cd 10.318249980965984 14.466668333971574 14.159484522507835
Cd 13.299778290391862 17.18476173709933 10.533507242084085
Cd 9.903905183501298 10.320909459170455 11.883437962617958
Cd 16.3785701647232 7.717747392128222 9.122703001080996
Cd 15.463071213146385 13.271624989959044 13.845568246964293
Cd 13.457427539360507 11.988874428762257 11.495725453903974
Cd 7.351006799220471 12.016170950519971 11.789260933657019
Cd 11.766722024675284 8.518612534266131 14.194358787380509
Cd 13.070990773770133 15.608735792932894 13.394889460972133
Cd 14.363288865014736 10.193186419937973 13.80449855791668
Cd 10.20949830094266 12.72042858493142 8.114622827317067
Cd 11.610470310724764 10.34398790792151 9.289216134066795
Cd 14.14372128670167 9.293692528357512 10.51493708709881
Cd 15.015746001897188 11.72526675541046 16.419840764857984
Cd 10.577400519415006 16.239326614711434 11.368129147834962
Cd 14.374078438257415 7.236361812107007 12.84201786718783
Cd 17.697335899251613 14.602280006411174 12.14715270408043
Cd 9.110174742240837 7.51783181348459 13.05161254372894
Cd 11.58447453025498 11.582334739285926 13.978100122857011
Cd 8.001534730671231 14.878478734988585 12.209088587964569
Cd 11.580361270770574 7.827407561002598 11.183424164204581
Cd 7.701715052061054 13.879527444434443 9.317364747506966
Cd 12.837682586916292 13.684672592915414 15.790982098879828
Cd 12.38704191732128 14.545099101713348 9.028666826493152
