21
Energy = -7.02117123 eV
Cd 15.900466812531189 12.491590691425715 13.630164586421076
Cd 14.795258659293712 9.217153068580304 11.494907419960057
Cd 14.375246508405235 12.165746471451666 10.58064737209859
Cd 11.845794623709294 8.45841580784656 12.077685818147351
Cd 13.172928243856326 11.042065316276918 13.236430741995834
Cd 9.037638220233353 7.106544209378669 11.849845065209538
Cd 10.319435383158973 10.964095104189434 13.61064141948065
Cd 13.000404195250509 9.538848348280641 9.161119051596922
Cd 12.132366515438619 12.412236261077114 8.643201840915333
Cd 10.58679471739043 7.710523988052334 9.276483174606511
Cd 11.638928558144588 13.206242252201797 11.638313127634923
Cd 8.12494744455858 9.136046412110208 14.211243186140498
Cd 10.406639550579719 10.630802902567767 10.489588759916881
Cd 7.7514679439037035 12.42067204020209 12.734219499214857
Cd 7.487049130213886 9.647989247143139 11.294462297881319
Cd 9.10943024662055 14.585460560111175 10.993911357249198
Cd 9.715029169546314 7.967890925380758 6.438475451091742
Cd 9.964665346658139 10.869337159780526 7.1365857990728445
Cd 9.517467794944256 13.878418816420927 7.971061841537565
Cd 7.616972261983264 8.909560120796048 8.369948938634378
Cd 7.8002541508501295 11.939545773996368 9.460248728464405
