20
Energy = -6.69665962 eV
Cd 11.08963475518658 11.5177587217877 4.802043833566649
Cd 12.128954584098505 9.994192711389319 7.673178086771518
Cd 10.167533947867023 8.074180313050341 6.404668340041927
Cd 7.269128263787664 8.99292843720823 6.453513934091826
Cd 9.162328215769433 11.275925284799822 7.218266174350163
Cd 7.992818445355178 13.240658772222627 9.421007972613438
Cd 11.088507297801602 12.54405328302923 9.15528239879287
Cd 8.281090125883932 7.338803437098727 8.883808599424789
Cd 6.95231370220533 10.300341288404114 9.197730614740237
Cd 11.377630659659616 7.315639520491321 9.16227292437969
Cd 13.946725378535914 8.862872166979818 10.028224841380155
Cd 9.531507744560667 6.138892451025918 11.397891369960458
Cd 12.315818141925966 11.075047644519469 11.547965190700314
Cd 7.13482096024596 11.754484512939355 11.92524547662718
Cd 9.835072702264027 9.804734140261965 10.011244915786726
Cd 7.31903365157395 8.607690361218436 11.752565640105692
Cd 11.860872776601223 8.112283389005036 12.249994251853412
Cd 9.841250150296784 13.256398654896131 11.874299106329216
Cd 9.253180418169665 7.610979947200898 14.07856768479646
Cd 9.70133682096139 10.431693705221772 13.011787386437835
