26
Energy = -9.58251237 eV
Cd 7.266120089888671 9.991063392194421 12.587090382594326
Cd 12.305462409928943 14.305611819591427 10.612872252770769
Cd 9.39752491481998 10.57388165012841 6.861936448120108
Cd 6.397576454388584 13.098748789299439 10.473129870124117
Cd 6.9719619281767296 12.276104535982853 7.469527355609138
Cd 12.90524022431816 10.746161786819101 14.061184925861705
Cd 10.709726781952607 7.95109853072778 7.906984902117532
Cd 11.384089295761934 13.39396162220389 13.310077174223922
Cd 14.06903698892707 6.715270358449733 11.667243653076364
Cd 8.337719727875353 6.8961236879124135 6.431525049688813
Cd 14.33673413074418 12.740591833587896 12.262703991302866
Cd 12.198766300159987 7.826522572601621 13.692998754793816
Cd 9.894665101033194 10.675849445255368 14.016693867020635
Cd 5.946478155144931 10.187662030681773 9.912017731266658
Cd 9.059052163839281 12.408709343970385 11.637015444942506
Cd 8.97002390804491 9.738997937782962 9.843897287204808
Cd 11.493324087570103 10.438995741062753 11.289231579465016
Cd 10.704990439693063 12.300523381625165 8.946943629468736
Cd 8.569880784935206 14.457271694149933 8.915916596848673
Cd 13.654366072400094 11.60739559649605 9.537819501564469
Cd 14.840400863639847 9.701886056641099 11.933670575079468
Cd 12.36035895578624 10.352335087288637 7.153932860129218
Cd 6.6087226073204635 9.210866408181113 7.216907298092031
Cd 9.115597115930406 7.801904094453394 13.27099451284863
Cd 10.709243685106626 7.481587604291352 10.843422367886204
Cd 13.321146848028171 8.51198548662654 9.413072324138382
