26
Energy = -7.76396786 eV
Cd 13.904302407669283 15.41314843965439 8.136599433503882
Cd 16.681032184166313 16.669866565681705 8.422152914836396
Cd 11.486809605628935 9.63463838840461 14.379325231483262
Cd 16.287581187029584 8.67210417259525 11.754598988961362
Cd 13.604322507174828 15.540253069473689 13.354298852992965
Cd 16.54639783119786 13.711670541421752 8.82105621489134
Cd 9.709369794759825 11.914918674443086 14.920237913274432
Cd 10.653915777379217 14.140442269871231 17.034388390230188
Cd 16.243327508156387 15.797106078799324 16.69280826070505
Cd 15.05597107771698 13.307292838063558 11.765943649804475
Cd 7.711652991670446 13.808323264211321 16.424096079637355
Cd 11.18040812493659 14.039335567745233 8.14599694164164
Cd 12.154391753023965 15.024444351063138 10.799310461759365
Cd 11.59555872280388 12.90333415553249 12.87558814981932
Cd 6.666013168787753 11.268205478461542 14.427256241351825
Cd 17.715683500783296 16.28262140805784 19.476913989227132
Cd 15.99609691499996 10.988819934794117 10.01472228995646
Cd 13.046576553040568 10.457601113769359 11.61837651185947
Cd 13.436428138819881 12.282121542996318 9.136433496168243
Cd 13.214582926573085 15.306183511720038 16.251925480018112
Cd 15.557426565480199 13.423646258447294 14.956071047090072
Cd 15.28197192950871 10.720387814786221 13.921070492313117
Cd 15.100479824982381 16.497881513970917 10.942830926851252
Cd 13.736272762427774 8.015174468953262 13.419191581555737
Cd 4.955433514270976 12.358214269057783 16.976183489278263
Cd 12.791089408951736 12.135360989963639 15.645719652729882
