21
Energy = -7.21136387 eV
Cd 14.387713251410823 7.825425040999144 10.822634307582085
Cd 14.197024495385483 10.896278238537551 10.4711078669698
Cd 13.412540656747243 10.306384467458708 13.315585856880793
Cd 11.612864638052608 8.121631952554678 12.126051170093765
Cd 12.145235808697324 12.918834940386004 11.990592705431094
Cd 9.106533174561159 6.388519457478746 11.807839276027948
Cd 12.811799787093864 9.194977669251246 8.2479522194464
Cd 10.307723865504006 10.722925105239831 13.347120555409358
Cd 10.517466149299922 10.503386525303737 10.390750937514472
Cd 12.17517727815446 12.378759593136525 8.800075707152343
Cd 9.98359326843077 14.160608135105454 9.922701306842637
Cd 10.056547443825357 8.744116457945047 6.536705502275868
Cd 9.043973331904384 13.518151619727995 12.684124707313906
Cd 11.607827055112402 11.265267537610281 6.111771353544101
Cd 8.150905413277748 8.664365348002447 13.551361909307175
Cd 10.324772700610513 7.716853452678293 9.388936747162278
Cd 8.129440782019339 9.765663294543927 8.772127019110266
Cd 9.08869875163104 12.350704851712687 7.624935867220481
Cd 7.651961508034813 11.065401460460125 11.46943139465132
Cd 6.755607383625813 8.09864188218687 10.874428484281982
Cd 6.886272321611418 13.746782034671199 10.097444170771826
