22
Energy = -7.66226633 eV
Cd 14.20870618603919 14.104942819356877 9.118091015275537
Cd 12.223862092639562 15.536276396733752 10.850158233449285
Cd 11.490936417774211 12.61485016688166 9.52507385319847
Cd 9.638340534900827 15.24611278689901 12.809647819940373
Cd 13.961620545637517 11.002413981885006 8.70313202492186
Cd 14.804526783727004 14.206825102344599 12.165119558390117
Cd 12.11273047847454 12.984967682028918 12.591838730954366
Cd 8.647838555945453 13.616972751409575 10.405717943738221
Cd 16.10394169354451 11.928682501436912 10.596193810157406
Cd 11.497587743109627 9.550412871134462 7.950825344921421
Cd 9.546266716920774 16.499527260778013 9.908111965252731
Cd 10.920650891995066 6.9441438378352585 15.50258986455731
Cd 14.713243461785583 11.190307242738276 13.203999693182983
Cd 9.875083781721619 12.887371766093375 14.697124409482154
Cd 8.920995208228886 11.04090404574742 8.869402896003326
Cd 12.6561652734924 10.17173468705737 11.254433081170445
Cd 9.635957944424538 11.124053467711578 12.000407289866844
Cd 9.629214450826613 8.342815838558224 9.912273759557177
Cd 12.621382560098732 11.586518113779753 15.358607264609535
Cd 13.3266222296254 8.646985595728319 14.447007907771107
Cd 10.821189847187794 8.25879017412662 12.585960300564036
Cd 10.064674874998524 9.93592918283289 14.965821506133334
