21
Energy = -7.00770971 eV
Cd 7.971199933484205 12.598207839737302 12.896966716788183
Cd 8.114624168230756 11.689731630858414 9.509654454677372
Cd 8.732332994613534 9.795147134019329 11.821681326258362
Cd 8.879283296175013 10.548692675383665 14.876623157657162
Cd 10.312757430972523 9.53153272976555 8.87152011684611
Cd 10.892343652572404 10.582767565324248 16.988742692059912
Cd 9.699498022097696 13.93285929087733 10.849665886100055
Cd 10.341666637002989 12.087178206097223 7.259504671368444
Cd 11.058567186459904 13.053764868223872 13.530875254977087
Cd 10.693478312194891 7.45001450909756 11.35802884092257
Cd 11.459934852388553 9.666736984522917 13.279112368911594
Cd 11.546319963471614 11.530256672707043 10.822496932444848
Cd 11.32887654884593 14.742151558623465 8.332075326140073
Cd 13.102178191573142 11.55760675941003 15.345792870985463
Cd 12.613879047240728 7.425169464386773 9.086535086588942
Cd 12.598017804161922 14.472367983712319 11.115179224524685
Cd 13.82750356800285 10.070120495539198 9.604731033066557
Cd 13.329791961148478 12.520493135278025 7.8189579832790574
Cd 14.290751057645775 10.494831638857528 12.673546622541343
Cd 14.244546863950857 13.623565900028595 13.441235208101348
Cd 15.041588964359931 12.705943414143485 10.596214682354839
