21
Energy = -6.80022392 eV
Cd 10.385207441176236 13.435858746174654 8.157105996461445
Cd 15.039938535508265 13.316108886740393 12.009754365918878
Cd 12.259091056485158 13.393922677491545 10.482190742247477
Cd 8.972698038085596 14.594094410159501 10.657727582682567
Cd 12.708276018108302 14.428946664487128 13.628950487634869
Cd 14.242644099741952 10.743302625223148 10.715606980316444
Cd 12.708194048300548 11.185607506350209 7.969185136359588
Cd 9.97903536144115 13.176764373301774 13.350029231663271
Cd 9.620491597920152 10.91003546111019 9.54340575487968
Cd 7.246359307075211 12.702998939570064 12.26728406546588
Cd 11.558911619329749 10.936067980368989 12.180693400595485
Cd 13.652721441925205 8.430324507837003 8.943382590142814
Cd 10.805509200416736 8.684432036441738 7.790491465734906
Cd 7.756921800384876 8.847048513284959 7.926323029299081
Cd 6.590961073956735 10.85434611406897 10.020837749723068
Cd 8.709922719058765 9.934272671909007 12.363920810257602
Cd 11.229488617233837 8.287639340148177 10.943576488749795
Cd 12.245315143731558 5.571982943632272 9.193791598845584
Cd 8.956558175636562 6.857106151808781 12.425008104879534
Cd 6.732734747310166 7.95862544533875 10.747374445207281
Cd 9.201609009471552 6.493364470209926 9.343315499325096
