21
Energy = -7.22220012 eV
Cd 13.929836859418831 6.130211637186931 12.120085984337816
Cd 13.773732963130655 9.053555281581188 11.499508860354467
Cd 14.0407365504823 11.598178818495635 10.123544442007997
Cd 14.520915919439359 13.757569005103539 8.149772123724075
Cd 11.672377872332792 7.96174858605821 13.511189440541047
Cd 11.411169437935538 6.782245466282666 10.584739688435619
Cd 11.935747103817413 9.566548398868099 8.967561259806752
Cd 12.220592247118073 14.200738143943486 10.224353084172886
Cd 11.889050886023142 12.490840507007398 7.515925036123123
Cd 11.56689881999167 11.229615579956425 12.009787868365608
Cd 9.617851782130753 10.055185897108892 14.018176497867541
Cd 9.344017047921595 9.024439823006164 11.139750174247267
Cd 9.942270835019045 13.785150996315311 12.08651652660805
Cd 9.550705172366662 7.51800405882873 8.437909057558615
Cd 9.79243865672564 10.577808363741191 6.816177753839384
Cd 7.378451416952029 8.897498615878217 6.99232098151886
Cd 9.622749263242751 12.054018608077529 9.587582305735138
Cd 8.024771100050245 12.606062324590185 14.043261514536729
Cd 6.94029118063929 10.397244820999836 9.493907937026387
Cd 6.78097888570047 10.179716501801966 12.53677480897109
Cd 6.9889784796002274 13.078181045206428 11.085717134260033
