23
Energy = -7.73078849 eV
Cd 7.829172352385576 12.240250578693702 13.40201374404163
Cd 10.832933487355286 11.850930959826137 13.413046856630455
Cd 13.603990164696071 11.11927077008786 14.722883928294634
Cd 13.69426642346669 15.658819979285786 7.81572904500807
Cd 6.390411517426519 9.401216354587735 12.164301581030694
Cd 13.651542943522815 8.083319402242346 14.253864847362241
Cd 9.337329904806808 14.128213668952654 11.605736506240675
Cd 8.998427827348594 9.442837403359452 8.961833476896446
Cd 11.257882898192973 9.294631917050939 15.528841046569083
Cd 10.659157540243221 11.881299636453045 10.065994752774909
Cd 13.336453192321873 13.626276735639232 12.955600141596713
Cd 7.564808775603126 11.65999094540086 10.462276928167194
Cd 10.443926971842274 9.187881219809633 11.593638127128028
Cd 12.023818955059838 14.924059283732088 10.480888650665012
Cd 8.789290828301615 9.394949553991337 13.994218936414658
Cd 11.451671320999155 7.609290364788096 8.671055332630097
Cd 6.499919815532998 11.862304515068077 7.545593331506434
Cd 12.982753310877554 7.703680795998815 11.392110151211178
Cd 11.511046830373338 10.442876249458255 7.4574245237017855
Cd 15.184058674570371 14.39205721236569 10.482902938150644
Cd 13.208960408924884 10.783473563122989 11.681194020519747
Cd 13.910753680291542 9.451074783716352 9.063566280413507
Cd 13.443466501545167 12.467338432057403 8.891329178734
