22
Energy = -7.41997174 eV
Cd 13.303739268083914 13.140894540389121 14.659937709880337
Cd 9.330072265828345 15.756583911765718 11.897629446569432
Cd 10.146057843039973 12.53082309477397 14.598268936115051
Cd 14.139174846139927 12.066455943774857 11.679824618134617
Cd 12.051075558461575 10.358725730988077 15.585018588919839
Cd 11.824678961398504 14.135898057168145 12.275202751080444
Cd 14.83269886541209 10.516870666827838 14.157553243177459
Cd 7.719531666326635 13.590121391603844 13.201857965748736
Cd 12.662806962113473 13.787296582646924 9.32630897233465
Cd 11.096283944830878 11.300287366861225 11.602314990428592
Cd 9.66593708365225 13.671393735647722 9.676588277787474
Cd 12.74540659754 8.965149483290542 12.695802708014254
Cd 8.011118259606368 11.260623256473236 11.367539740102721
Cd 9.857213818229077 9.49533882409995 13.671245461853648
Cd 15.05186018863254 11.40893689115113 5.795297271986203
Cd 12.015228832423235 11.772487468017106 7.004982256339456
Cd 14.428133410844527 11.265077345414275 8.81868015654755
Cd 9.840166464997681 10.785700838846449 8.919373903442642
Cd 7.841513774151014 8.29873797948273 11.813867223241722
Cd 12.421389006898297 9.209610824999286 9.611136750430195
Cd 10.708626031515772 7.222860192015242 11.256817579173926
Cd 8.85014666398885 8.002986187877356 8.92761176280679
