22
Energy = -7.20608634 eV
Cd 11.740962656374364 14.084759320167285 8.172217829286923
Cd 11.970416970458091 14.23336052869822 11.270777357253381
Cd 14.114996583890038 12.656687969269807 9.520684855128149
Cd 8.959256085070926 14.563213789335821 9.404276872721086
Cd 8.619743956925605 11.668727625723793 8.242470705740098
Cd 11.720915722251537 10.98081524549705 8.10986496117586
Cd 12.344439118715679 10.82641822518127 11.291422821713526
Cd 8.855377809836945 9.334252734351743 6.404405951833129
Cd 13.62810274371635 8.81016286747768 9.015621672312573
Cd 9.574810732387258 12.225299513188647 11.115125915827546
Cd 6.688200857323072 11.301458746643192 11.074599749941372
Cd 10.80632920813666 11.75014070302327 13.752507670445212
Cd 6.666272227308943 9.168247073802508 8.657524325609112
Cd 9.885462440860437 9.37249216338238 9.962381794344022
Cd 11.249026806527564 7.707407385254153 7.383111594392589
Cd 13.487590739853228 8.072213002368487 12.159192917102201
Cd 8.170780978412857 10.221794975039584 13.786112700466871
Cd 10.50968932090917 8.375186436176941 12.889789284702005
Cd 7.5280334431886615 8.246653851160616 11.583759327597267
Cd 11.503427011248805 6.73166510761383 10.319762542373068
Cd 8.805876502260066 6.450322514968558 8.910621913086626
Cd 5.930506079924805 6.356219057684163 9.774554711964628
