20
Energy = -6.47455833 eV
Cd 12.371254595244341 14.55456354017104 9.538214230013315
Cd 10.039415195066576 15.529154375022417 8.019911453159432
Cd 15.440950270777435 10.29475482404748 10.337551631935133
Cd 12.896311367139432 11.692098815522924 8.763069483328696
Cd 14.548726797939075 13.166851892857022 11.019735169927324
Cd 11.49996440547138 12.706814498945693 11.799499302339608
Cd 13.20368029085453 8.6832754888963 9.182482558010586
Cd 8.947671227644713 14.169344983827706 10.482247695235165
Cd 14.207001607474023 10.805334702301575 12.945009705337235
Cd 10.401517723961577 10.234073440133336 8.870533788558499
Cd 8.917868020523972 13.270937465957703 13.335979856558058
Cd 9.07606472923997 12.65627336541752 7.664963319115623
Cd 8.875666957156884 11.4241773311195 15.619050612862553
Cd 11.682950349315826 9.540259936755572 11.667318750615019
Cd 8.338595220443827 11.19486405702535 10.999938666535998
Cd 8.61516405442215 8.155548680522177 10.684142880447794
Cd 11.081667367485942 6.645132615310723 9.726661014239344
Cd 9.050406203367679 9.296151868682406 13.455950369499941
Cd 11.602326617666906 10.92279271068542 14.40254945786265
Cd 10.580855876957868 6.435654284951745 12.863248932571462
