24
Energy = -8.44106055 eV
Cd 8.244313792964746 14.488342060282694 12.500299238654252
Cd 11.30605179055405 11.498807580077703 11.274266025806769
Cd 13.804804190805024 10.330172349252294 10.122917211133032
Cd 13.7510921112842 9.170464435137184 13.580156317707953
Cd 8.763849127845402 12.204999399647093 14.493494240484194
Cd 5.678138720339861 9.2059267650042 12.057887339494263
Cd 11.77105810166066 12.028822810867918 8.297166148313423
Cd 6.77369559870482 11.985464144474061 12.042428002725138
Cd 9.092951876690815 9.89586060463499 12.443560943263387
Cd 9.496176048410678 10.285263720684041 7.228457129097762
Cd 6.9063522785119655 7.112978804788311 10.286071860876987
Cd 13.158128796808224 14.99817582598658 11.646134348789827
Cd 8.683542097263707 11.665830786302092 9.765067959250107
Cd 15.47687699258559 7.957982915634539 11.348935456035466
Cd 11.393160072594409 10.698197896933008 14.503746231300424
Cd 14.059538381712843 12.17480632142167 12.864563043213709
Cd 10.265026848025224 14.20737585378297 10.31852091573841
Cd 14.48623278720881 7.200247718066854 8.544764985212552
Cd 11.963901647291388 8.822029012046288 8.254337850748321
Cd 12.586731062448958 15.013206939313205 8.571815410214482
Cd 11.14587543707082 13.68792479298973 13.374721203218956
Cd 9.39544859720874 8.547696713323244 9.703253367739025
Cd 11.75937138996026 8.248525918557341 11.537431982252413
Cd 14.59020597970102 13.123420358442637 9.792526516382297
