26
Energy = -8.62432656 eV
Cd 13.329304537937992 7.136406310571105 7.797897318379486
Cd 12.339561533152724 9.324094182365759 9.72333093991305
Cd 9.321423473814026 13.99031422284932 14.86181430516416
Cd 10.977159513621388 13.455675780915477 9.171228300339957
Cd 7.945665179461508 14.912084986531108 12.350973986303257
Cd 10.120729026621058 10.782084774278637 14.628336731313867
Cd 11.346838230840184 11.372368195454476 11.812840286148136
Cd 12.940855495378353 15.671480473919342 7.414399224327589
Cd 5.7389522800910155 6.25246521023391 9.314134294680489
Cd 8.437489435483437 7.502257029309448 10.208268086341185
Cd 14.954566536598783 13.88358759230825 15.633571932986515
Cd 14.409121594316963 13.371230925701644 12.639808621820256
Cd 8.67884505050546 9.714089285051388 12.11819472159814
Cd 10.207065540415993 7.922705326938648 7.919989427265643
Cd 12.11471165375866 13.135633093150183 14.79996639378389
Cd 13.477429970509213 15.100966938776596 10.411499573144877
Cd 14.205470755575366 10.888284706387665 14.878971418058502
Cd 8.727599327917087 12.46832507984823 10.74929262384138
Cd 12.06748285934004 9.662199172215084 6.449678707359377
Cd 12.20532256003972 8.61725290849217 14.430463505817047
Cd 7.409030972599389 12.043538639797994 13.542809644889424
Cd 14.12921197106629 10.072133552887893 12.0401137292592
Cd 11.005671881883552 7.576279497323952 11.900518653182896
Cd 12.71381425652516 12.439426705339526 7.028820933709308
Cd 13.938757848021098 12.065928887972166 9.760037407802722
Cd 11.037360639063522 14.418628645918321 12.192481357107777
