23
Energy = -8.11000532 eV
Cd 9.106869709842618 13.283234751442427 9.280518450389522
Cd 11.332803110380446 6.607099776036775 9.531753817462283
Cd 11.963083645314638 14.243709655669708 8.520124786324464
Cd 10.073121638577307 10.886732966091731 7.680666134958224
Cd 11.725588272377827 7.69127249369645 12.29286789581948
Cd 6.913255211434823 9.649433852262172 10.891841099456286
Cd 12.636389662094142 9.28971665738908 9.06398439860273
Cd 8.788942642312104 8.205879853390098 8.89398100942373
Cd 8.409368027270126 12.213962576761903 12.36031767069931
Cd 11.264166865755842 12.974410036952163 14.251418530745259
Cd 8.877976307353745 6.161502251997065 11.517449815482998
Cd 7.092456715470007 10.70735284150907 7.9609549200723375
Cd 10.375754660271253 6.887050270383503 6.614559538646366
Cd 12.975260944966568 10.593867806950954 11.982481613236889
Cd 11.796746384491982 9.760887874153662 14.598290873776353
Cd 12.855339078825104 11.651633852551365 7.061835284530555
Cd 12.096439086339215 9.11721758220395 5.731816549450143
Cd 9.11024283023057 11.095452204722028 15.139177347620556
Cd 11.374228331456084 13.161094173887424 11.336175176318779
Cd 6.322583265266286 12.601518308785389 10.212652699097344
Cd 13.960830891880988 12.298605892894862 9.780096126734751
Cd 10.241020669108126 10.394364479811244 10.663104531893781
Cd 8.934348756095357 8.919454051024744 13.009223308758147
