28
Energy = -9.59801819 eV
Cd 9.046870588515496 11.638282136366728 10.430388667093215
Cd 10.70428386673874 14.14054026453557 9.84343118559908
Cd 13.557662538565163 11.860375726194972 14.245702304881224
Cd 14.052272693627698 13.366762628997721 9.889316870068596
Cd 8.762880201690887 16.911698853673006 13.298587307478739
Cd 10.786503129890201 9.318252519993582 9.077273176056782
Cd 13.13210675056407 10.967452244233527 7.873859308068707
Cd 16.47051426995421 11.701572080748813 14.494360701058177
Cd 9.218558249589124 15.411597508251607 16.023196755752572
Cd 12.023476616084093 11.695912093020153 11.370024071686814
Cd 15.325399743598286 14.096537978280939 12.95594700469412
Cd 7.888964195287357 12.796990771331014 15.737767734184441
Cd 11.454914601818144 9.858011450980054 13.664225995259772
Cd 15.505534397756994 11.264371259491993 11.65496348727796
Cd 11.718299128454207 7.179761453848368 11.047537154410918
Cd 11.546256921045089 16.171565293637833 14.372849862808833
Cd 9.336026595347839 8.849334940824992 11.761486940279738
Cd 10.086645545542517 11.973247384759494 7.623560223573388
Cd 10.86782062147676 12.968042146451017 14.194254385154833
Cd 8.367057316393526 11.109796111433798 13.391414809530696
Cd 8.683428036188875 9.275178306274375 6.773371623640023
Cd 18.847542821509784 13.269675467685197 15.392145546816858
Cd 13.702599846237 9.349710787614505 10.300591406371131
Cd 15.987626272124015 8.831427849108255 14.71290550314192
Cd 13.789665679910785 7.949649341326498 13.051134829673172
Cd 12.665411509350271 15.012417689214153 11.940248997338074
Cd 12.48186066658533 13.808959874729242 7.377282746418126
Cd 8.777533368717664 14.010592009556206 12.289887574246213
