23
Energy = -6.84240165 eV
Cd 12.76140980272054 13.137426610207795 7.768599728675546
Cd 14.358480034371036 10.387601572755251 7.787201997260733
Cd 15.377660978053346 12.672627313461328 9.621230193083283
Cd 11.411268904882759 10.414702292280575 8.463795445848481
Cd 9.350186254063788 11.832805816385498 15.828825088194195
Cd 8.490169123899282 10.1557800315204 9.478995711622686
Cd 10.765368320769845 8.400295951687157 10.793362270859937
Cd 15.236191737604493 14.41004957817209 12.086743565377494
Cd 15.430125235862306 10.894075026201886 12.08972278521664
Cd 6.193786758083068 11.830934032886491 10.64598130006368
Cd 9.682212363442176 9.493717525603865 13.7654752917774
Cd 17.370329417504873 11.496104988508087 7.52236981877835
Cd 7.842813099582109 11.921799050839665 13.183353569061213
Cd 11.640962403359664 13.775846323836173 16.110110952685424
Cd 14.160478560954436 15.020026739492556 14.877707355248807
Cd 14.343195940609146 15.652295806047363 9.184348197806102
Cd 10.304500825729567 13.886299219953859 13.208321164645117
Cd 13.04988954305088 12.352600594845173 13.458615065203427
Cd 12.420157550430652 13.839366257833635 10.77145270393102
Cd 12.119852743934567 10.607384015492029 15.902160654875523
Cd 12.724849990027773 9.361418480226563 13.161555901400185
Cd 6.972751352998616 9.699253697598843 15.522169058658331
Cd 10.58873100050794 11.454977961746966 11.421324852152264
