22
Energy = -7.54792686 eV
Cd 11.16092796806064 10.85025992639219 8.363101112243319
Cd 11.673380428521803 11.833413508973841 11.559611609363696
Cd 9.026999079601469 12.293452088813945 10.471221412091314
Cd 8.507599688622523 10.190494294779668 12.665718770811651
Cd 12.393897348143563 8.969366789727317 10.811175183472514
Cd 13.309560915180507 12.93730008201314 7.6114119392574535
Cd 14.238039649392194 11.20886093075044 9.849137724120792
Cd 9.877075864366617 12.76244218206656 6.01694703030532
Cd 8.139407850239722 13.954380306450451 12.85848263737275
Cd 10.507707378205108 5.024375341111696 14.037339271605605
Cd 9.378478533940317 9.046079011921526 10.00266694105311
Cd 10.77373449740117 14.07748978430684 8.690592423214229
Cd 15.531001864107296 12.59037149337565 12.431535575766052
Cd 14.701288980923383 11.210681089091063 15.120475530617973
Cd 10.688359759325333 15.145379326122386 11.426897810477941
Cd 12.114748461994745 9.923868471159878 13.888554750292474
Cd 10.48828345809484 15.174713198394475 14.410895030420832
Cd 13.487570320805178 14.094766193003661 10.712388897987104
Cd 12.892950188249905 13.395236026940132 13.82948151106992
Cd 14.856359477994342 9.608858769875914 12.48086747151346
Cd 10.095619862121412 12.094460297914129 14.277113884100364
Cd 10.282145706201037 7.738888168307886 12.609520764335882
