21
Energy = -6.90816684 eV
Cd 13.842040146077059 15.120737922741675 12.911970267541554
Cd 15.972556410433619 13.522556110332864 11.292118474507783
Cd 13.26857417754473 14.519321919854574 10.010478126677873
Cd 12.305131129498212 12.76926698078763 13.73223639454417
Cd 14.355858524938187 11.01475748116782 10.841311175290691
Cd 10.432727556649498 13.600251968246987 9.484134717345011
Cd 12.809351309638062 12.030306491535837 8.211583195609238
Cd 11.330518310728362 11.443466530298128 11.251095490547588
Cd 13.809261131855244 10.086174761302617 13.607453443802205
Cd 14.398520189231474 9.343709709509488 8.253827079734734
Cd 9.325607518132259 12.386522622610388 13.415161984985817
Cd 11.083789466890373 10.382901285068447 15.24858218516053
Cd 7.719419743937641 13.184939734934359 10.732516867318312
Cd 8.842829170045931 11.433465241131056 8.10422296677513
Cd 12.438374326527843 8.522151051322176 11.04802416815735
Cd 11.380534163633149 9.357860040448482 7.585100848647771
Cd 6.232431646731294 12.546533972957217 13.626815146729049
Cd 11.985207327054926 7.716702226290683 13.935458719678037
Cd 9.5627288034241 9.191031958603634 12.902561343526004
Cd 9.617521108939158 9.201825771736564 9.971283963257072
Cd 6.981926877583586 10.320425258612941 11.528972479657515
