26
Energy = -8.90917321 eV
Cd 15.135391636247158 12.456012141407422 11.54344387045978
Cd 9.926128263895656 9.194990503984192 11.180613518550382
Cd 9.533067389457415 7.213730940571668 8.860388440217077
Cd 13.673146598375396 7.556049677245306 13.122319761654063
Cd 10.427686546682162 11.371602759743961 8.817013918314458
Cd 13.11859300546349 10.517913831590445 15.073035647221209
Cd 12.163487766871125 8.851934671129891 8.909204689445312
Cd 14.358421304213751 9.457544411686344 10.823250942038323
Cd 9.659376814453152 12.380926671536148 11.578674934246555
Cd 8.59485687322187 13.249866837765316 14.294150312996056
Cd 8.305936336705816 10.28712037309474 13.496937833184644
Cd 14.83235804526076 12.344231503341799 6.339200246612436
Cd 9.035643326039745 15.317345312500318 9.137737169970197
Cd 12.187104214514907 11.018894333545425 12.163068854259377
Cd 14.215540054016365 15.295221516023233 13.338304559965957
Cd 13.49188488139254 11.793095433028627 9.06723327513621
Cd 10.937116555574372 8.564289634643666 13.914032162616792
Cd 7.725560536129032 9.705950963068197 8.66646330914002
Cd 15.688685186015434 9.925115022480805 13.529964599203376
Cd 10.207229932488143 11.080371951314959 15.669947333259827
Cd 7.510466631864481 14.674768496520171 11.680304993278664
Cd 7.487426015090287 12.658459067236956 9.213213140849764
Cd 15.12185342514757 12.713671481675211 14.579176229290542
Cd 12.310763188215185 14.09158393712172 11.346985696008904
Cd 11.729119587096037 13.237012929441535 14.200501580765774
Cd 11.66053626890166 14.079675981635443 8.492213364648295
