29
Energy = -9.33271371 eV
Cd 10.687407002143942 12.63768471107421 13.004972647589048
Cd 16.72863265530787 16.300624130866822 9.90297695407742
Cd 9.325881900807616 10.66496987749371 14.95540028636642
Cd 14.752972227470998 8.722780216059407 8.845740765354483
Cd 13.741742400241748 13.422201418493316 17.731568740487923
Cd 16.58729583166603 12.962648887489397 12.42214129130771
Cd 8.399282134158538 14.466926883264685 11.800620335094234
Cd 11.028782865069832 15.010555840871339 10.456005980407216
Cd 16.692405577495975 12.835845265097648 17.713795235331208
Cd 12.763544741575558 16.608675951506264 13.303468912694406
Cd 12.701884621094175 13.983191117688932 14.973443536057935
Cd 16.259245652679372 9.54991264845352 13.004715474279177
Cd 11.656077782276665 11.344580426497963 16.69693160112749
Cd 15.840251200190565 14.251465691434225 15.086974752879778
Cd 12.653491160411338 10.275710684609654 12.69822498951723
Cd 11.5601637641397 17.181113626761054 16.079199167543067
Cd 15.958572139959788 16.15623052883214 12.84465918097744
Cd 15.423883926037638 13.593496608196102 9.548097632048847
Cd 9.832343877148686 9.379980794733461 12.161166474123384
Cd 12.417059259677545 15.951162196365825 18.65280124892418
Cd 17.243454045628116 11.37947736039973 15.170664429130227
Cd 13.323660697804693 13.353890932921841 11.886703960033412
Cd 13.897700200050213 7.402971415393267 6.044743862490065
Cd 14.883589245592091 10.962160040124315 10.755632549273592
Cd 9.778567667734523 17.351060921218092 12.018734882909376
Cd 10.089938546737715 15.298438732115855 14.281703826549725
Cd 13.759423824842937 16.201739640843932 10.53316466008878
Cd 7.67181514923647 11.529048203277423 12.211295549622147
Cd 14.220269603653152 11.10079494874899 15.093790774547575
