24
Energy = -7.50290282 eV
Cd 14.03079194056857 9.73904449996108 13.658099146923428
Cd 14.865036671193048 12.468821389184733 12.561013281008671
Cd 11.770106430620391 14.268168979982608 15.231111757175304
Cd 9.698109699096747 11.178909835417452 10.653790886405101
Cd 11.178593725137613 8.579104907950606 15.652254366120516
Cd 7.740940079910198 13.429118941191508 10.824103193657342
Cd 12.879778522023422 15.094129214739532 12.49243896543031
Cd 13.456437140763382 13.565715454336635 9.942937181078449
Cd 10.29322489266171 8.992732131962583 12.66492121804124
Cd 12.236697635760141 15.093522112966877 7.19829877088291
Cd 11.379380484819876 6.456177502833284 10.735644329886954
Cd 11.390104557218008 11.860665624889009 13.325395077280834
Cd 12.62948241507009 7.1660759648666 13.393649779564699
Cd 10.451293750879916 14.097354731399664 9.585209097048088
Cd 11.073147630742486 11.450908109484537 16.3628637390676
Cd 10.29896526156728 9.84019054659667 6.174315276269701
Cd 9.914964727164348 14.406332827443697 12.65599115485992
Cd 4.754909550770756 13.35588090000318 10.074429435926369
Cd 14.941090622661623 14.745710935671417 14.678087977977182
Cd 11.19226359529177 8.758041971199539 8.914126229868433
Cd 13.415249936312211 9.286904017346412 6.80708648517025
Cd 12.823246496513828 10.644727339464463 10.951727361878435
Cd 13.953763282053323 12.024608721092145 15.63420335349691
Cd 11.89602941545392 11.760761804270432 8.091910399236506
