21
Energy = -7.30511881 eV
Cd 14.220000651385556 7.761419764764694 8.307119306410714
Cd 11.197233495875933 7.010328148992406 8.223935895667141
Cd 12.073525089617423 9.543758884439299 6.771809865708831
Cd 12.322894511351592 8.008108099315134 10.939367701599005
Cd 9.207215360700916 7.701717749275433 10.342719796791618
Cd 13.31242487642805 10.506884210048694 9.420071887685653
Cd 10.366305584157251 10.420729314386026 10.4207292869949
Cd 11.619470564948271 7.894995855588596 13.875494600424124
Cd 9.1161658639602 9.403723028570719 7.668175069428752
Cd 8.66432671375015 8.080946793081296 13.241488946169584
Cd 12.562359993748622 10.677165458823843 12.476393086569384
Cd 7.295534584494814 10.123482949289748 11.428111098760304
Cd 6.56591827004486 10.685695285734276 8.501576453898279
Cd 10.911234728704004 12.064230171938854 7.988150827113726
Cd 10.109283449144133 10.473070606305185 14.363100701442852
Cd 13.74069103741355 13.342953285415604 10.08363154073585
Cd 9.492541514252878 12.517499163792737 12.325154317584694
Cd 5.529522107524887 12.692545423529713 11.11224054762623
Cd 12.359831728519396 13.648972223990164 12.740573715280703
Cd 8.20588815926699 13.023167302076917 9.474307862270406
Cd 10.863826045797989 14.308681773251509 10.08905475256514
