21
Energy = -7.15435817 eV
Cd 6.735040570498839 7.447585951102984 10.062150247663874
Cd 10.001944397161276 5.920388973841088 8.411875792988097
Cd 8.489158402458719 8.537248158550815 7.7560098989787285
Cd 7.381782022132654 11.619690733450174 6.679843342846875
Cd 9.328154440129635 6.650934098090989 11.319151348632701
Cd 7.031702696178841 10.561200120729689 9.557982751236402
Cd 9.94560526344698 10.189239709508813 5.628566130711617
Cd 12.285586241757002 7.131398620978489 10.359598646554105
Cd 11.527296606369035 8.981385451565039 7.939937293344339
Cd 7.725626336892167 9.252057107784147 12.457776733671155
Cd 10.91863338772468 8.780306889158028 12.76066276312237
Cd 13.920452155242412 8.649958220489568 12.714564627078321
Cd 9.882543184451077 11.435608357031262 13.596747103559563
Cd 14.00614959752213 9.741834232430215 9.710908956164717
Cd 11.844259252018947 11.873885010361471 8.981246163677213
Cd 9.90783360351012 10.005016009256805 10.228405813823548
Cd 8.959199182663694 12.908032712221162 9.481359651120638
Cd 7.370885693344013 12.342646719208 12.149029102527049
Cd 10.167423066559245 12.995909443196057 6.692861307982782
Cd 12.596599923467926 11.516241532437494 11.995885465026461
Cd 10.510882635025846 13.895651318233007 11.87936688331906
