27
Energy = -9.23328631 eV
Cd 12.779882472471401 14.364568644396392 15.065212708409382
Cd 9.87879477739662 15.46488068456122 9.910104430973396
Cd 11.93879144779833 10.880672077059977 12.772741244865879
Cd 15.940677606691033 13.55096562267967 13.919248038100692
Cd 12.658776342934601 11.157846787265026 16.002333887814867
Cd 11.286314163185681 15.72290814386679 12.76400901530651
Cd 10.659305536602147 13.326565525022026 16.998659934910403
Cd 14.876183386203776 9.707244728185389 14.519570360086623
Cd 14.917819094534261 16.619280528617757 14.899071429171904
Cd 13.319829709577016 13.499529097113294 12.221558934134855
Cd 16.345045119727885 16.368493866540664 12.195905869271618
Cd 13.673832573028783 17.607369835106166 12.411542151401457
Cd 12.99376362178772 7.156777837495835 14.049326239623369
Cd 15.913286838674239 11.61677397168704 16.465125442456138
Cd 12.808489726061508 16.187480997565004 10.008112330843606
Cd 13.423858478804316 13.1666657816303 18.24621301150036
Cd 9.349070083736633 13.371421362093452 12.245744609482864
Cd 13.611278272308965 13.616111023304756 8.830700765716857
Cd 14.022130059158819 8.79147739937778 11.774343972090556
Cd 10.741640663729282 8.82910376021953 14.980727456214257
Cd 9.704101863849957 11.698431951060074 14.640571042721277
Cd 15.653574512972416 14.549240775794656 16.827796740089703
Cd 16.03738005037165 11.083901621662676 11.914225101439818
Cd 10.748876946740834 12.536189949152632 9.828637259526943
Cd 15.983735675879926 13.837553890411261 10.773996571037973
Cd 13.212081403994583 10.898456983101076 9.919629932815253
Cd 13.733941864447283 20.602549447700163 12.027353812663868
