25
Energy = -8.86183182 eV
Cd 13.726977411426995 7.773121158967122 10.609641772845109
Cd 13.14272107015454 9.45390676134631 13.107805539171622
Cd 14.670462436559307 10.675258832453434 10.662148631366918
Cd 10.782060908188964 7.663681357103176 11.609022138740949
Cd 13.466285798667416 11.71008419092429 7.957070698823944
Cd 11.042680648899582 7.824967884664002 14.675436322929718
Cd 14.550923160226699 12.286118387596535 13.203263862767994
Cd 15.229270834063179 13.634343913412632 10.087256592290968
Cd 8.27899775215695 7.72735585507793 13.421054770304242
Cd 12.020163270113393 12.030229362323194 11.385245067487926
Cd 12.2019199625076 10.153260297286117 16.254846139178923
Cd 11.738772205399481 9.565882870728883 9.266086726699045
Cd 12.728417048865577 14.65422748839522 8.448800945722766
Cd 13.3784383654055 12.827837114613278 15.902611399508977
Cd 10.433671842963612 10.912669502012905 13.80523940772867
Cd 11.362543342830788 13.9323943360681 13.865724438541031
Cd 13.27711112684393 15.708722850516844 11.213546720256414
Cd 11.209538011762893 13.635337714542686 5.840839249850034
Cd 10.487567929847357 12.371404236575227 8.558492813697306
Cd 9.308128246614576 10.374219590410432 10.776909952667651
Cd 7.263634607971941 10.469781442240945 13.034684617170772
Cd 14.108457327310695 15.246331450808134 13.974179075256956
Cd 10.480412990907567 14.645813979758401 10.847793525799705
Cd 8.617086788532005 13.163400937453522 12.916508339412836
Cd 7.947871755796888 13.013763328737959 10.029906095796795
