29
Energy = -10.08984497 eV
Cd 9.165321601817292 8.108779312647602 18.21853268786104
Cd 11.229960413737059 8.441353675108948 11.868903338558217
Cd 10.216965791221542 9.975710695098812 16.06485075227503
Cd 14.693390882788792 11.881084070229411 14.75583721358758
Cd 14.487044509406672 8.13105564636085 9.035363205918301
Cd 12.62011602778305 9.679041103056608 14.172338712113453
Cd 10.268799659884444 8.312518763696708 9.002617937098421
Cd 15.10656333306137 10.733741409969287 10.66627119971113
Cd 12.268422735585032 10.442100383381863 9.743729092326063
Cd 16.841750718375675 12.15911380718761 12.654098422086093
Cd 9.962950770829247 11.01956157105512 13.251143188018933
Cd 12.760816177532336 12.14705564358851 12.291298288834207
Cd 12.175467213299179 12.120613228145885 16.45042570454445
Cd 9.331252102527143 12.94515402435915 15.808989536347735
Cd 8.342710779429474 9.713838500189807 10.781250717752624
Cd 14.226031698114715 10.910639328431555 7.50846081391904
Cd 15.73340739924631 14.754195802006144 13.660012102645739
Cd 10.274075725553658 14.155761142220705 13.110806751431491
Cd 15.08761684488732 13.821082468043002 10.613031108807753
Cd 12.793435408422086 14.425502920285345 14.692510249931889
Cd 10.136772832331458 10.067074769446396 6.6673394395640395
Cd 11.315024718539169 12.732588582581815 7.462391785846767
Cd 10.305201686023779 12.58845501295578 10.468051496552842
Cd 7.4709719586525445 12.514689763807265 11.266150492757008
Cd 13.335837654749703 15.920710131195925 12.18063568242399
Cd 12.194849933211081 14.719052661011457 9.739444545507638
Cd 8.296860072051118 11.95027225128281 8.22641837042024
Cd 14.257862787301978 13.858154034672333 7.649854596787286
Cd 7.010062181942194 13.719387374404143 13.94821678413516
