27
Energy = -9.2023003 eV
Cd 14.259426498290162 10.78795346528514 8.458838501543509
Cd 9.112700541051272 14.086509385548535 10.098291867483772
Cd 14.377774187403276 10.618178385978926 13.816383214959293
Cd 9.873770405676671 13.908126688208817 7.159263930340596
Cd 6.349662476269241 12.411254448453793 14.489387623000475
Cd 10.797974345791715 8.686584961563081 10.36677814746949
Cd 8.901075583346234 11.185736673762793 11.098942196884124
Cd 8.671798507638195 13.483460299882921 13.046020756546966
Cd 11.416605489489294 14.064813842414972 14.434324296822467
Cd 13.972800163432881 12.963627114572198 15.787124311873676
Cd 12.890498355558881 7.855431691984346 17.466086799817163
Cd 11.761713429340146 8.755647949772813 13.578954590869362
Cd 14.432692135774033 13.629451031623942 9.61810554217447
Cd 17.642957509808163 12.514813843722466 8.933065127469447
Cd 12.330280485741213 10.54306351891408 16.08514482986886
Cd 9.99305692298305 16.070032292554128 12.466755823643533
Cd 11.414114077483703 11.814810107378126 9.33285568434923
Cd 12.802876204125829 13.20196720169502 6.836251251199553
Cd 8.866757649633877 8.601266562364438 12.59380858395579
Cd 9.88814273549222 11.187789979185485 14.576937306105128
Cd 15.912895433137349 11.502469024578327 11.29706507962624
Cd 12.003950403511348 14.669858523853943 10.878445883058804
Cd 11.694262910850295 11.88478169007703 12.274396564483135
Cd 14.118602131838063 13.606711025834757 12.820093894121245
Cd 13.493753665615454 9.666967398654494 11.098135203046
Cd 6.984757613511107 9.506729774609806 14.690736472980044
Cd 15.809154977496064 12.566017957815518 6.471861356598541
