28
Energy = -9.60782318 eV
Cd 9.142905404120588 10.022136371783308 11.888672709240577
Cd 12.267665202780607 11.014903838240937 12.257002469332445
Cd 15.804330619733514 12.87757090241572 8.206542223224227
Cd 11.95982325161492 8.669168623737981 16.312103550198632
Cd 13.588166463374025 14.880968363351391 8.603790114441585
Cd 10.42938859204378 13.24628502265569 13.367803902846674
Cd 7.583810814273171 13.308699080799126 7.465844344305635
Cd 14.268643869985182 9.399542506802081 9.419427826002874
Cd 13.022482313958054 14.216589434697452 14.861185780594397
Cd 6.316177836084154 11.81267945949343 12.18609750476482
Cd 8.819382342875222 12.77164387682359 10.461064421850603
Cd 5.984686055206625 11.173494880932797 9.22986950876134
Cd 13.774523945280439 7.248275296077959 11.6109761128059
Cd 14.716251834121978 11.881201442018662 13.93162907620909
Cd 9.24785722881178 9.113867688049915 15.051540387637589
Cd 12.897457564993907 17.229308782989435 10.322796366549053
Cd 11.703800949126629 13.428076071907693 10.562895534541852
Cd 12.708381247592262 11.97768653705329 7.966788082579786
Cd 11.816060006940818 11.498413511848574 15.384276204860745
Cd 8.760045270495137 10.354954599468432 8.421427699325559
Cd 11.38022183280045 9.745151417454728 9.65468819830891
Cd 8.104708212558275 11.774140646398132 14.477885839807424
Cd 14.423522338015731 14.629457478070561 12.153581882582687
Cd 11.650900766594274 15.86783815333373 12.657825649210167
Cd 14.849956911081781 11.962158105556348 10.904065579013908
Cd 14.237529131791357 8.85775428803553 14.364114076388512
Cd 16.0247384505969 9.382626300131871 11.962008020641033
Cd 11.393593994213699 8.279584138642424 13.037251881554013
