28
Energy = -10.32002545 eV
Cd 13.249445534083915 7.6518505042302785 10.412051126336957
Cd 6.9812490310903526 11.865730979922757 7.116591071922574
Cd 8.826767061500865 12.279421454626267 10.927337994567317
Cd 10.656804270746104 9.685789358935365 10.562914099615838
Cd 6.956919506302401 10.072241290033574 9.59464649338358
Cd 14.401134756535752 10.428464698697608 10.259284199476978
Cd 12.028036190342872 12.202934137249104 11.343464120689772
Cd 12.352995470717397 15.268412475052768 11.429790073931537
Cd 14.27305890680175 11.2109058163494 7.383708347090607
Cd 13.603191978179714 13.465487130312601 9.171443664040325
Cd 10.61280664757091 6.097031765755329 11.33120559227554
Cd 10.002410668105274 11.035165094766864 14.21101847926529
Cd 12.128243393338787 9.246798879954175 7.82834450959032
Cd 12.895503331239183 11.988389016459001 14.85397305581248
Cd 8.09178075233445 9.617165329013845 12.271690785002264
Cd 9.155410087167654 9.66684532801821 7.525595241948708
Cd 8.490900566037274 7.378146911527969 9.65486397547399
Cd 13.529965786604675 14.753739586463492 14.117665368884422
Cd 10.312402970900258 8.03608385655034 13.594786982425289
Cd 9.297478090148303 15.341065223130306 10.915744554104988
Cd 11.27413002646922 15.237108659960665 8.539160034507779
Cd 7.7417756216583875 8.509475165468302 15.30898583704998
Cd 12.877878627320563 9.746866397678803 12.920609127045033
Cd 11.276562049294895 6.372467001592573 8.38560642349628
Cd 8.49090634794732 14.021235454366298 8.384954260311932
Cd 10.89359973388489 12.022385841590996 8.402983622287781
Cd 13.018675938462726 6.661115530666455 13.309943649430773
Cd 10.253297780435688 13.86256769304312 13.301258869760645
