28
Energy = -10.28024591 eV
Cd 12.779993042179015 12.592780056556624 14.27903040110154
Cd 13.507142942538417 8.361335225057287 8.299607146212495
Cd 15.07142105754373 10.895821551612434 9.088737626842546
Cd 8.106144385386434 12.329045440467878 9.795376192894835
Cd 11.22736655483222 15.062124193244141 13.05234416780212
Cd 11.884802167227118 10.711880676329889 9.203208850304406
Cd 13.066114461219195 7.877953310788466 13.143090602733897
Cd 12.493783063469053 6.553536050004614 10.60105618732048
Cd 8.877923551224313 15.220290554391982 10.794232552949943
Cd 14.661064154379973 7.850810981553112 15.623698868636245
Cd 11.35773123759489 9.878340652140094 14.77420302780024
Cd 13.64019079400949 16.904124024342796 12.219341995580104
Cd 9.711350093024938 12.320625672163123 14.537808036379692
Cd 8.409417012283 14.936547170468684 13.936724469577682
Cd 7.753557892988473 9.041173991285623 9.866096722589345
Cd 10.803067145970159 9.262397005977457 11.74072015078396
Cd 13.503618147438141 10.76655515960507 12.008922995360711
Cd 15.134038880721286 8.47985002583033 10.924793269934526
Cd 10.7703853753252 12.421752110238721 11.461790507329242
Cd 10.608258970256404 13.375127948705455 8.443629657893446
Cd 9.223627523716443 10.572082763056583 7.661029158957069
Cd 8.313004155313193 10.76552135811161 12.377289901644714
Cd 10.45146835880895 7.940814630303168 8.951627614328132
Cd 11.751477472208515 15.845911490324573 9.958828449410369
Cd 6.652113352570065 13.386933749025083 12.166703013268043
Cd 13.590772837637449 13.554879432651365 8.712718299807797
Cd 13.870331151890374 13.807376865495527 11.66626185374835
Cd 14.249917214540577 10.754490906566149 16.181211275105905
