25
Energy = -8.64252841 eV
Cd 13.599767511787988 15.371569368528926 11.572034231207825
Cd 9.110161570673437 8.433241608886606 13.88580665982245
Cd 12.610154242041663 11.405336749163382 14.510445913132545
Cd 14.18193164687928 14.756689887680931 8.65458541270416
Cd 10.507478474189307 15.217615191992934 12.195758435586905
Cd 9.755714222278028 6.605839502263284 11.47237071919789
Cd 13.9863435911725 8.96560894773543 8.96529368259853
Cd 14.797569447302315 12.959219784024802 12.84442052378559
Cd 8.140082513964765 12.961414475688864 12.053368594145917
Cd 11.857594770833778 12.807882869074918 10.982304880120253
Cd 9.995575974502236 13.085521948045809 14.45431872430847
Cd 11.138996150087241 8.984462659646244 10.18644903258084
Cd 6.9750153060092535 8.023011489080318 11.622749788149942
Cd 10.423876057628686 10.747796402656338 12.562532728921417
Cd 11.458190592463144 13.93052197192754 7.474051868096322
Cd 9.116999232760906 14.284526065369873 9.498813622509777
Cd 12.68802372337159 14.50976914465701 14.478175462659992
Cd 13.505616609360192 11.846147533595763 8.69892747024988
Cd 13.380395236086024 7.308505476521189 11.541807726824862
Cd 11.677046000148701 6.865784018731234 14.015458941557357
Cd 11.547005230436502 16.228477536292118 9.54149711005298
Cd 13.671899626096026 10.437292732374814 11.72424068858491
Cd 8.013450149985182 10.549992404542959 10.407061365115053
Cd 13.971553195622487 8.727434241175844 14.39850028355084
Cd 10.330370365385466 11.42714943140973 8.699837575602793
