27
Energy = -9.51876932 eV
Cd 11.607194973472543 11.529510797880974 14.139780289975745
Cd 14.130172893737177 10.237810127329595 15.280654929214833
Cd 13.784450387336527 10.393909760109231 10.052363520098035
Cd 13.175865494501949 8.82379261582117 12.608013237495468
Cd 12.695804943916961 12.845235047462086 11.648237269956137
Cd 14.276665855063248 13.266356613172444 14.300157426875145
Cd 10.969993300142496 8.451851174115383 14.64418022877943
Cd 9.077200616103731 15.077621781240731 11.91554812457973
Cd 7.8275175976214575 10.339467743020627 11.238204777077783
Cd 9.662401412750334 10.582251846384969 16.417703831335174
Cd 9.465811721867569 13.623736761585649 16.262457866507233
Cd 14.050222250390593 14.19989920848081 8.671002059323248
Cd 15.674569319792608 13.361447390853865 11.071963952402692
Cd 11.242796471010887 14.55152716921296 13.851851495111017
Cd 9.431628986379478 12.755652960197958 9.998349796057719
Cd 14.567248853560653 11.552778064330084 7.516134097299617
Cd 16.31187679769829 15.490787158845098 13.321038905982755
Cd 12.30898709147503 9.21951038235986 17.480429245900268
Cd 15.357397801743964 10.91064304766684 12.63449217324105
Cd 11.684448245182192 12.251428015653252 8.126641395253156
Cd 11.471122995368003 15.075049933345545 10.102320809409916
Cd 10.931700523375618 10.359303303941378 11.275665561753325
Cd 8.739961307854308 12.413156527685498 13.380556912309649
Cd 8.13436586823572 9.292483388532563 14.057946210808069
Cd 14.217583424677944 16.186160815614993 10.905530349096338
Cd 16.011796988934737 10.931608386346248 4.908633660607717
Cd 13.471677735453925 16.408223918833386 13.777970841177845
