29
Energy = -10.53541596 eV
Cd 12.9657696832325 12.28211525584073 7.1355734173714565
Cd 11.881441876323752 12.479299044653766 12.996065240782778
Cd 10.68529327110558 10.715760586081768 15.398142615806286
Cd 11.351277680961836 14.631065732473242 8.034003272875808
Cd 13.322890139724764 9.834880488538479 13.598113147025284
Cd 8.295884666624815 12.130904171597356 12.787256841838206
Cd 9.992693111503401 11.847408966351924 7.725223684391057
Cd 12.024490242573634 9.243009151588591 8.07459851020393
Cd 15.03662250655064 10.122098585919867 11.231809083409459
Cd 11.751373410460024 12.894760419752107 17.224344476264502
Cd 11.458514198974104 16.170492798190036 10.568705796667047
Cd 12.876884130109314 14.692098466456162 14.99862272579655
Cd 13.251408910320341 12.427059166899882 10.098005312924489
Cd 9.290331386185235 14.996585002586682 12.351227559612095
Cd 14.83486434170439 10.125207845861102 8.102435938222934
Cd 14.917880354836068 13.517829217142385 16.818752823329636
Cd 16.120091340891268 13.045031668151085 11.156930352648518
Cd 9.496761424906897 9.317790772646582 13.064347274370089
Cd 7.086077891442809 9.689679707537083 11.197220458892943
Cd 13.778244694154896 10.753857593619584 16.35662610779321
Cd 11.892799933442156 8.547699141645756 17.345389998004485
Cd 11.327166851039278 16.828387902974914 13.730666380129048
Cd 11.69399155964972 9.861056914545838 11.063417326383014
Cd 17.414450069067605 11.366361998946292 9.017552007157654
Cd 9.230741238845676 9.332798910533409 9.142472394984152
Cd 14.942648774122349 12.432467800231011 13.846841033692812
Cd 9.912776303042161 13.78111297278292 15.039102267967333
Cd 13.692278578847645 14.768566286760441 11.998931271362325
Cd 10.244837710718818 12.788533258301953 10.540051058696786
