20
Energy = -6.05623324 eV
Cd 12.61597271523807 10.406360827592005 5.681356209637194
Cd 10.258729616382766 10.467708299967958 7.7670155668706595
Cd 12.450367940541138 13.14115656457085 6.9340516356494435
Cd 13.08742258799437 9.051514044381891 8.31353827386832
Cd 7.634756532849481 12.048113173045921 8.496251858403687
Cd 10.124332105797603 13.062197101869073 9.821535440670722
Cd 12.618039471266819 14.728104834129095 9.582062313400474
Cd 13.129806700578278 11.750314581645256 9.932128299319777
Cd 9.313871700160655 9.945220768812426 10.826620912507135
Cd 14.806394292769763 9.41336159258318 11.048703466820326
Cd 11.865097784543844 8.262459363853 10.915181074720577
Cd 7.605853002712117 12.42956929363941 11.794333858046802
Cd 11.820025022566703 10.432613233813468 13.090272830846963
Cd 7.583317929941382 10.032253023877605 13.634939516940133
Cd 14.649891870970574 11.814568557428931 13.10083677841115
Cd 11.831067912871765 13.40041407347262 12.49552325374174
Cd 9.96043428686379 8.008673827422095 13.315719506715915
Cd 9.392963585190838 12.543531355533206 14.298884498633123
Cd 9.859149133744918 9.759111057385477 15.844987736403779
Cd 12.074931174021739 11.9851797919833 15.788482335398355
