28
Energy = -9.96035807 eV
Cd 10.166061243693898 9.730537916732674 11.402870047903017
Cd 9.19094837248263 11.487060843021023 9.113527079547142
Cd 15.098189418318036 10.600264922613693 9.150510354456191
Cd 12.033622831358732 10.375591188924195 8.84681108253788
Cd 11.876907918008897 9.93722464545739 13.983356436504824
Cd 15.771431920748123 9.818546036021399 12.84148746063388
Cd 13.523773919049196 12.071015584489952 12.121595022256614
Cd 12.890577975914317 17.773820385444193 11.737277249446523
Cd 8.426734299628526 14.22911826839349 9.916810703859072
Cd 10.666233732944553 12.583606806125411 12.398213134958473
Cd 10.159237730884977 11.017129405315748 16.28543232595218
Cd 7.111078142102457 14.504032038444393 12.723520398937636
Cd 12.415179781190272 12.848021243072061 15.115646415769692
Cd 12.034924334500074 13.206684078918459 9.567926009284244
Cd 7.7698498741866695 11.59731528684156 11.876203264737143
Cd 16.638192850407577 12.423185995927303 11.30505054389396
Cd 19.137282897040787 12.308463242860412 16.55401816220772
Cd 11.401271703017661 7.122697706428721 12.406276369783678
Cd 14.504316863560005 10.649996592291217 15.595592210888322
Cd 15.387687325852522 13.557154993476315 8.767670301170014
Cd 10.770957579880422 15.462219824735387 11.22304300397632
Cd 15.045574660743787 14.16334240858733 13.824694262647649
Cd 12.447665568339888 15.587010294549373 13.884514459439405
Cd 7.943910691405948 12.34495758019125 14.78603046173529
Cd 9.658790992418963 14.831109249881122 14.25765814265444
Cd 13.93962900052361 14.970036501844845 11.061057396935702
Cd 16.979052326862533 12.091793646626208 14.389930387190907
Cd 13.395901731171193 9.093048999022365 11.24826299692939
