29
Energy = -10.53489702 eV
Cd 10.013741410886624 15.814597791379033 9.136948018196998
Cd 10.04695042427838 7.414591772036551 10.445341863330473
Cd 12.004411124559859 8.814823568742895 14.917692022219915
Cd 11.569141301036984 15.901073374647734 12.138213982645274
Cd 8.56395844346262 14.797108302476675 11.563164786441048
Cd 9.85325210647551 11.728370731327752 14.040911820518165
Cd 10.835801836273363 10.228303008267142 9.519541242710648
Cd 7.899831790219801 9.712865457829782 10.128890725293436
Cd 14.056116389139374 12.602612090928151 11.404220549544075
Cd 13.844132230777765 9.278405605877678 9.284140146733217
Cd 9.120303875266952 16.299583573070787 14.03276745114125
Cd 14.122540938060382 12.265686573805057 8.503981202044322
Cd 12.154706311385477 11.590473641301744 15.936274386656505
Cd 11.004249176206807 12.75701310038696 11.492581086613104
Cd 9.185413218987337 9.167873495399814 12.84280261132307
Cd 10.916671764142054 6.636616991699832 13.249472490473856
Cd 14.727258642835803 15.763767021789143 12.192076874389766
Cd 13.067390427169935 7.3091189071007845 11.347788261253585
Cd 7.509966038721545 12.010763989285968 12.179341250379629
Cd 8.364159357260707 12.610252083305586 9.302698090835927
Cd 13.133008620423448 13.681882587371591 13.993649128220547
Cd 14.54609306062157 10.694763553928626 14.303554315914683
Cd 10.584655794281089 14.23512057911622 15.477354263995982
Cd 12.390633972951283 10.227031343770378 12.197938012817113
Cd 13.087336351451048 15.185757594313484 9.520057721042097
Cd 16.70073473836707 13.322349584539948 12.920119754801428
Cd 11.223673695655032 12.979062590560492 8.318846068603696
Cd 16.227106583724858 10.716878740992037 10.410405051838994
Cd 17.203815320742653 10.21030729011247 13.156281765385677
