20
Energy = -6.55227199 eV
Cd 11.561086129642426 6.565907357088718 9.720411948775856
Cd 13.632842245926893 12.815498138326602 13.91857819911414
Cd 13.89186352890885 8.442788843320207 10.36328306011699
Cd 11.377190700824158 10.712419802946966 14.348270842209942
Cd 11.246346359245166 8.416479052154608 12.256454174949138
Cd 8.875622047370205 7.810853685218439 10.314059310257282
Cd 12.947043798861063 10.970492229380538 11.51087893805896
Cd 8.590977242135875 9.990603119307966 13.689362847994479
Cd 6.512704689183153 8.726037903134438 11.890494227239847
Cd 13.223518148161059 8.024258897548679 7.493901656077756
Cd 10.266786002021664 8.765571651607397 7.727654167315963
Cd 10.984996062011032 13.362116443280748 12.337059980017886
Cd 9.973683424533673 10.582727924850179 10.268020073535848
Cd 12.587608789922802 10.905076975962938 8.415977862948498
Cd 13.033227110653922 13.610977467582352 10.059018903881489
Cd 5.578920849217601 11.521218825984038 12.883676236886597
Cd 8.199960275419688 12.440338928184362 11.774913126925107
Cd 9.657134972005375 11.655297076691232 7.22502365824541
Cd 9.364681668405641 13.840323128326302 9.444910965243245
Cd 11.616875416527735 13.964082010081276 7.481119281183408
