26
Energy = -7.88155734 eV
Cd 9.683332762180196 12.075288905038567 9.219138624835042
Cd 12.813513361489376 16.16730346878057 14.28700691136522
Cd 14.58497483360938 10.482679568926123 15.52193985992084
Cd 9.329770451593662 15.722084410936521 14.438790364037958
Cd 12.289493294074516 13.143986592280145 18.654302725112032
Cd 15.415307447920448 12.549512510793466 13.604878217954681
Cd 14.278680410074221 16.59607006254806 9.786904345201192
Cd 10.073125414252331 10.786919609791765 11.998219687926783
Cd 16.020075136678777 16.597666748769953 12.250031129143844
Cd 10.964315793091506 13.627299401336916 12.957026556654764
Cd 14.938120652401881 4.546912986373308 14.045849000872986
Cd 15.478315063547814 11.274678980680749 9.407233400995292
Cd 10.92525361847203 13.417590424117689 15.949136078085667
Cd 8.269591964349098 13.446906818158546 11.600433596137114
Cd 16.470658248510514 13.690175559441123 11.03169910537416
Cd 15.320822379583928 7.5602059006983415 15.250475173375607
Cd 12.580186741222555 12.387351590104378 8.863816679574027
Cd 13.248007020916456 11.540844632064088 11.736935547717563
Cd 13.490308019733273 14.573457447502637 11.830572485768169
Cd 15.612425499743384 16.24384372461228 15.341429429968969
Cd 17.71925352929518 14.597508637875181 13.77539690651197
Cd 14.030948739822414 13.62726943797751 16.038191982563312
Cd 11.856968463085309 10.896069522298003 14.426420951117702
Cd 10.909050209123935 17.961721211669545 15.736947685856489
Cd 12.3256864089993 16.00916324595534 17.586579014976987
Cd 14.97076663588295 14.076440700922877 8.259596638605304
