28
Energy = -10.35196255 eV
Cd 8.929151691979612 13.619212025212029 7.905669360486524
Cd 10.823959144612182 7.703425793812059 14.703181505996186
Cd 9.555053758184288 10.585306243978824 14.509459431209867
Cd 12.62006242888911 10.023936291653756 15.10728476200343
Cd 8.356765464821688 10.211961947311888 11.409626383436157
Cd 13.407788604436341 8.112346780594578 9.378334779668629
Cd 8.314763091923593 12.914044914860886 12.824176116169319
Cd 15.55484222806241 9.894897056067256 14.300404979970748
Cd 13.151167683797997 15.702476209842269 10.954748353852578
Cd 11.054016887376067 13.256354614131702 13.96081650871448
Cd 12.806565536813924 7.517042485046835 12.363071027654291
Cd 10.801661492401436 16.760750396973123 12.896008721804161
Cd 11.70998523163876 12.576388252424877 6.96526568680874
Cd 13.118405764717114 12.675611570403687 11.585515460619359
Cd 14.307680954168147 14.080011919410323 8.696555727336438
Cd 10.558760718374359 11.597382848974728 9.755640884017122
Cd 13.33291127833288 15.497549796101701 14.020231028526846
Cd 10.008986222283331 6.287239577413874 12.072220034760994
Cd 14.718229586613804 9.853301840639595 11.501633847078738
Cd 11.418883648618143 15.211669135361369 8.444091248671338
Cd 10.398098831560917 8.376314247688363 10.014989746587966
Cd 14.146044763535844 12.60471045604855 14.54713295273847
Cd 11.550416781988996 9.490620311702877 7.480904760912688
Cd 8.02666739982492 8.103960196688117 13.428347934790985
Cd 13.667793900452377 11.158537074866082 9.002575051810897
Cd 7.082799991856772 12.637834158877393 10.018618743242062
Cd 11.506804284457486 10.245808017044498 12.198259488874145
Cd 10.15294606758668 14.38251927617664 11.036448911566177
