20
Energy = -6.53250865 eV
Cd 9.366428244987748 7.780810021016707 13.616007024478181
Cd 11.068045559253408 7.399482218505204 11.157282949597871
Cd 13.906528173803052 8.335315573368144 11.151233951616462
Cd 13.73300286477612 6.730726468814458 8.556773445925174
Cd 12.117751973585484 10.27303891025931 12.659824760429984
Cd 7.243330935054515 9.509238838753403 12.308786001614678
Cd 9.4416788016228 11.154248219340747 13.641229176361305
Cd 11.160392551202468 8.361753543193677 8.231759003693607
Cd 8.132830500417858 8.237119970470495 9.69347552346149
Cd 14.274559001476593 11.361469283699265 10.65937975893646
Cd 10.220119974051965 10.413582811266659 10.300138168179215
Cd 8.45618832634287 8.353306020054154 6.7148858597896615
Cd 6.812706123105129 12.571703364104609 12.91080347698338
Cd 12.02737142260923 13.226606772789648 11.6181214867202
Cd 7.356578652926904 11.328642027457208 9.903679352651709
Cd 10.386960741894653 10.70936455282588 6.345019941516879
Cd 12.518186386685398 11.139833854746616 8.361746737405365
Cd 9.097584479991884 13.670806120936275 11.339681766420906
Cd 9.833409739791419 12.879655817965906 8.487818969806193
Cd 7.477666274212774 11.194616338223627 6.973673372203416
