21
Energy = -6.83867314 eV
Cd 7.354795715848733 13.627411726585287 11.336334743540643
Cd 8.16790115957707 12.821890478524004 8.5059231811942
Cd 9.485619649879016 11.834652516811873 6.0228966854190755
Cd 7.171207325950304 10.570397094814394 10.322065616265018
Cd 11.483831930013523 13.22370617746438 7.769751191729399
Cd 7.979125974008587 9.72623468097749 7.465681026318476
Cd 10.44254415790608 12.965799754095368 10.620940320229884
Cd 9.406969056089721 13.287781745429736 13.563434270106429
Cd 7.058405390441399 11.289178698780786 13.295204466796562
Cd 11.25656475905069 9.93358288563123 7.514368065505222
Cd 10.322189306046699 10.393642553870242 12.922814734252599
Cd 8.164087874758478 8.460938082116943 12.542107396154195
Cd 9.810931476460226 8.949255720597035 9.963623673267087
Cd 12.404857928542222 12.433776838184501 12.845616112988807
Cd 12.902889052365023 11.272529865322108 9.824534414611714
Cd 8.957533939953345 6.964005993381037 7.216896036128423
Cd 12.954911842196553 8.197108614823314 9.555799825451004
Cd 11.336527447698025 7.486693689924585 12.322372631774707
Cd 13.54391010832679 9.58539066861102 12.378917489579266
Cd 11.701031197634778 6.074151779075016 7.814022440583556
Cd 12.516290794072447 5.261324239568046 10.653945271138545
