21
Energy = -7.19020323 eV
Cd 8.924950535670039 10.654121977287383 6.739703448100781
Cd 9.550318037422693 11.325452003699308 11.76889916785034
Cd 10.765004249125733 13.897918058517797 13.152354951452358
Cd 12.209259008211319 7.662911130950017 9.604746336703716
Cd 10.197675269804634 12.379432382555427 8.941026349465544
Cd 11.559158373225452 14.751181372547082 10.329773531201372
Cd 12.917851305553475 7.840191150352042 12.696586761314164
Cd 8.572131889336076 14.19576575469173 10.99682606873915
Cd 14.013857696983967 9.682203185928177 7.926738016792425
Cd 11.187187640311944 8.557144995265862 6.9483316460822255
Cd 13.395729173807513 12.674566266265977 8.938866964767561
Cd 9.379927091937555 9.248477249000707 9.48007545402662
Cd 8.701352701721767 13.097439119089858 15.142173132787779
Cd 12.235850258059433 10.443723361110948 10.556676589014598
Cd 11.955353547677124 11.523592918695815 6.525723003498737
Cd 12.312693651550218 11.263810830432854 13.382962332759451
Cd 7.768281504552979 8.854442158420111 12.215368658943003
Cd 10.05531429837263 6.9505223365086986 11.583866539612353
Cd 13.837577732458321 13.484146372377316 11.93765263236753
Cd 10.389580202076505 9.001453721495825 13.88733407266846
Cd 7.818218623607033 10.258776446273489 14.99158713331781
