26
Energy = -8.86075576 eV
Cd 12.429623050227564 10.604428490892511 11.883816055174192
Cd 10.343203173246232 16.466046296035934 10.593317360007317
Cd 11.918631882814717 12.54668214320596 7.6146998424466
Cd 6.819066033428172 13.724635385708503 13.147432531271171
Cd 10.034746083256664 7.151554700833457 13.898052476400498
Cd 13.73020879803704 10.200030182946312 7.115330342973332
Cd 15.340222968099186 10.158374256633453 9.688943571937259
Cd 9.486932984274478 9.769583180413173 11.372890273513729
Cd 15.0508054604525 9.213019844314232 12.747877870780725
Cd 13.499902632007338 13.093573580173528 10.184003402961876
Cd 15.568591287267083 12.015138954215338 12.006089793850064
Cd 8.849312570902784 13.816230478943188 15.463513629736326
Cd 7.33485442608689 11.819876438837051 10.850562280283643
Cd 12.42519223187669 9.145552696301795 14.574153955292791
Cd 10.459779646501477 12.629795308711694 10.203309886741367
Cd 13.292428741127969 6.741818947010386 12.983666597866279
Cd 13.99239995917535 7.377696567128957 10.0858058332174
Cd 12.285156163870605 15.452094804335255 8.678973698902844
Cd 11.183245267224962 11.790325524240824 14.516243021168936
Cd 10.40318335842169 14.311998646107215 12.883735035294054
Cd 13.445984298310716 13.573973725021252 13.45105482687421
Cd 12.98055431602289 15.90799794787816 11.694379545452206
Cd 8.297658368968246 11.217747717106406 13.881119565760716
Cd 10.8584432700177 7.268801960699813 10.942868117305432
Cd 11.671031003710294 9.381643507343114 9.251300615992934
Cd 8.052233583810317 14.581389879909999 10.504775055061264
