28
Energy = -9.02198892 eV
Cd 15.115704450387273 10.965071799253995 15.770021181357508
Cd 15.056745979906012 8.664408887948047 13.906355213227155
Cd 6.834230291556688 12.8661569892896 6.740017135527209
Cd 10.038094654908683 12.91655995164332 16.665568276183695
Cd 8.668756701537864 15.851770935146723 16.66582613550641
Cd 12.215917930886349 8.411523817754928 12.592209397896418
Cd 13.667914589693847 13.892026745832373 10.805352169732421
Cd 15.042376780743396 8.030101923995959 10.998585679967785
Cd 11.557804073765046 7.914375111906799 9.495597310351796
Cd 13.832988198654668 11.024444880983815 12.244911351131236
Cd 12.3134447379399 11.744551380131606 15.074205039224895
Cd 8.7800264512905 13.98254456168581 13.992085490431055
Cd 14.002270475013248 9.454499226360149 8.492040147060699
Cd 10.777884178300877 14.719627318861962 11.746719035284142
Cd 7.963631159823967 12.663915101070625 11.463829615381332
Cd 14.443785772134486 13.702304155034282 14.002507848539624
Cd 8.486521471344512 15.145163717150005 9.641346287341873
Cd 10.751184028331437 11.67569651409755 12.582889646233745
Cd 15.712155234327312 11.89649652410149 9.91778515306901
Cd 9.192831134159007 12.309345878250868 8.614291850612414
Cd 11.441595622724357 14.407148418264914 8.79117721946108
Cd 9.491680863575313 7.286035140149672 11.71808376282552
Cd 9.323106416202842 10.009352284171857 10.520722382082896
Cd 11.505383471731635 15.075269669066682 15.020326734846902
Cd 13.288571737092495 16.30864898549644 12.894239448848406
Cd 11.978906508619277 11.399363643811952 9.643707298112025
Cd 16.707194656288653 13.668095940636674 16.273357006185222
Cd 17.128273950610804 9.334482019451164 9.045223705128663
