24
Energy = -8.24858797 eV
Cd 10.452558718938327 10.47182900341355 12.657124165098141
Cd 9.630929005321251 14.570126756627044 9.259781368968898
Cd 15.885870121033204 13.272809709602079 11.24723901393148
Cd 9.875033813418314 9.944046680482595 9.602613298926338
Cd 11.531705139176621 14.496258348710167 11.613593218410013
Cd 12.192277679240556 11.65830455659856 10.417187403394939
Cd 11.720473306194814 11.250192824985284 15.33585842478085
Cd 13.488202389775875 12.286506193981037 13.129170169369333
Cd 13.173207004148262 9.249102363992584 13.653943382476946
Cd 11.471255990829382 14.345654318440662 14.612144807537017
Cd 8.851731310208477 13.120387488357348 12.051222044147085
Cd 6.522244319851685 9.782168370588263 10.704237864057191
Cd 14.564592177409116 15.554304973311371 9.85729180815675
Cd 9.023552086231286 12.541544114934144 14.934871282104723
Cd 14.42526021501907 7.832127291432945 11.435888454104404
Cd 7.846195971033262 12.121108165952705 9.4266001595285
Cd 14.169346356703166 15.406306920466244 12.918473025616581
Cd 10.341705361683625 12.078457153656316 7.512438897226762
Cd 16.56051149619304 5.815805812773119 10.68823769862575
Cd 12.464194022235178 13.970893163797298 8.55216737805966
Cd 7.308236275694213 10.368265595879619 13.579598881311775
Cd 14.907038762520303 10.554809750746546 10.533683536953356
Cd 8.58083257055457 7.920543768213522 11.908108980251091
Cd 11.573675282588114 7.9490760490574015 10.929154112962651
