29
Energy = -10.3979692 eV
Cd 11.642473416058092 4.449555690973044 7.6341285186420516
Cd 11.2353388967888 6.903536102802461 9.379057002482897
Cd 12.527150233565527 9.526328221427095 8.86312772436607
Cd 12.924111204979393 12.3277811769887 7.83814776083729
Cd 14.947675726063908 9.549411299320429 12.435123307786148
Cd 15.057115945978097 11.007374952436496 9.802543746854493
Cd 11.173753290270785 14.937984548315498 8.158556301285742
Cd 7.573973270397684 11.485759438243006 7.982440825211653
Cd 14.585941034945437 14.197284006169214 9.453877856793667
Cd 15.511313956440945 13.054350554717454 12.100810779461153
Cd 11.800990504402403 8.480820636987287 11.839758280084773
Cd 12.462320905723084 11.604232734561183 11.55818677248342
Cd 9.311869238942121 9.055860981489152 8.8051921781278
Cd 10.394910896662713 11.901670467726003 9.267940313341496
Cd 11.573257042137046 10.458974631129813 14.397938281724365
Cd 13.806596657014184 6.762533552827018 13.290977345267782
Cd 12.27467017392328 14.798352662482161 11.107045049233205
Cd 6.969155381115406 9.643209888251077 10.560673488334333
Cd 13.982088699338941 8.9120365193927 15.44701998288853
Cd 11.910909793145983 13.804957289162738 13.934266522167643
Cd 9.593190838156687 10.355562884848892 11.933174073497526
Cd 14.610823734017643 15.041953083542797 14.407311780421166
Cd 8.30079110327694 14.35204622788935 9.018019209959434
Cd 9.645516330111974 13.592230625498813 11.746999731022884
Cd 14.460941216719672 11.89784179937138 14.681194634178427
Cd 4.8261885124002015 10.476701039366809 12.521714552132092
Cd 5.94548252865395 12.80265318597292 10.248073434432362
Cd 9.4479949255375 12.423979571631415 14.769023147884226
Cd 7.285973078451608 12.103575606204684 12.826023550627513
