22
Energy = -7.64353147 eV
Cd 12.843377174006896 7.537164516860818 9.664363937449338
Cd 13.914051074980891 9.979994866987944 10.987437530466647
Cd 13.252560725071532 10.358044340196763 8.007972568449343
Cd 14.716853896266 12.745360435573449 9.317145885958878
Cd 10.509017234140199 8.951898470570297 8.170710899311572
Cd 12.873416371597175 13.187254709601634 6.761854407342946
Cd 9.98440634745792 6.743181755848966 10.175165304377952
Cd 12.006043876631615 14.137797249645347 9.624564129239337
Cd 13.452961081706505 10.002901606255856 13.956763291987974
Cd 11.262858745149963 8.533719513736154 12.385680422303938
Cd 11.215462109143083 11.194197622339294 10.711628633605516
Cd 13.64988046775545 12.794470504729379 12.21886185406515
Cd 10.848624728238255 9.378952400637846 15.646015352894201
Cd 10.278508592830457 11.944860152282837 7.947087515401507
Cd 11.818964730322465 12.386411603712824 14.709048183002631
Cd 8.735478788270315 9.473182657499452 10.694675308813004
Cd 10.510138427347798 13.673815938000494 12.339422966658026
Cd 7.356822438137914 11.578363682800259 9.077011603102534
Cd 8.966743246211625 14.155358263296248 9.676078041303738
Cd 9.394650244948437 10.939300055251916 13.272012972664562
Cd 7.936886002309335 10.660277550360444 16.011075855833102
Cd 7.4446876416930134 12.760645155615935 11.892755472301872
