26
Energy = -8.56368666 eV
Cd 10.031321494822404 9.136899466210975 14.127427660548001
Cd 7.827148262269328 11.12791898862903 10.496558522602582
Cd 7.607624096863578 10.63887525344958 13.406551170730458
Cd 10.975896906901912 15.403924060555715 12.573910385433846
Cd 9.099313410964264 13.175475734022378 12.748457064281007
Cd 11.061130514953781 11.185940022805138 11.228128864810197
Cd 14.483523687273413 12.180703837781412 8.358288537341906
Cd 15.228198718817236 8.99986669323692 13.236538702441257
Cd 12.38019667881154 10.432100313342344 7.1681288357777495
Cd 9.954222391689573 14.443462511560787 9.70082623188618
Cd 14.877826962508857 11.545391996411226 14.82680918267432
Cd 13.523194420603778 16.613804103247684 11.773534378360058
Cd 13.511463338902205 9.099142867039102 9.584419235435703
Cd 16.339215615978713 16.4435053608954 10.842402354317468
Cd 12.280389441746118 8.579737295752015 12.168998878605505
Cd 10.460280647199074 14.247652484535475 15.448129015757887
Cd 12.510910140600442 6.133508480992717 14.084384150822554
Cd 7.447912883203678 13.362774586256226 8.393336701550618
Cd 16.121970656756943 13.497401268594153 10.557056366590663
Cd 12.93483142981834 9.142240218844673 15.287912561852043
Cd 8.74541338957905 11.767600577693328 16.027934002498554
Cd 14.245540198042585 11.370806059666021 11.610180028185738
Cd 12.835219787150983 13.902655939569412 10.335849491352464
Cd 9.938630435882365 11.593254081768457 8.312321701890738
Cd 13.740939946322626 14.091557922545729 13.514212445400183
Cd 11.7662013527129 11.812316684970295 14.11622033922767
