22
Energy = -7.46756855 eV
Cd 14.241711317338622 13.443424888852348 11.462673006224604
Cd 13.796324170981368 10.97579181242002 13.115644501196996
Cd 13.864845022280786 10.639151876595152 10.0152728300198
Cd 13.572552722993153 15.670243624714184 9.524105789909006
Cd 12.992747149823746 13.496286389489516 7.654630994779048
Cd 12.149234185962417 7.921689945288519 8.970744629236824
Cd 11.241469767840218 11.203145669428743 11.502244664825339
Cd 12.419157033739635 8.34223057637509 11.923864898230596
Cd 12.305917063260303 9.220775712224478 14.967969897115085
Cd 12.275577919106155 10.59172118989682 7.512833181521897
Cd 11.26045104239214 14.406903668530855 11.16016034920705
Cd 10.237764756940644 12.481742618007406 8.955052232980675
Cd 9.491446378286373 6.529854314827705 7.863868873187384
Cd 9.340674796850244 12.917838700676581 13.010958399499987
Cd 10.097183485674504 7.286731568802405 13.81516042690416
Cd 9.524513664595188 9.501558847932314 8.648030821744053
Cd 9.648045041436813 10.367682248936104 14.413842125456675
Cd 9.671500718169113 6.809156747720649 10.887412964270176
Cd 8.689155484271101 9.643705745793524 11.597406229896782
Cd 8.036771616702158 14.066245831825947 10.485344380627899
Cd 7.283449001748437 11.362218600453462 9.273175051490695
Cd 6.646309718377153 11.872867563707443 12.201662096708253
