23
Energy = -7.27737286 eV
Cd 12.310682342481433 9.03330251512634 8.910075079624207
Cd 12.905460439548746 9.812448357097724 14.184362686251417
Cd 8.823349361821219 6.342798166298763 12.130509690980867
Cd 10.953414527576944 15.8889073338538 9.78516818956232
Cd 10.606555899779073 9.021627230654161 11.672329023754813
Cd 7.576346236582956 12.198853376150195 10.78559571100252
Cd 8.241316518498683 12.276409072377778 13.73264159948811
Cd 8.077649828673632 9.171601624392538 9.99368317608126
Cd 7.610133850901869 9.307248661239418 12.96863778328952
Cd 7.810297905360822 16.405115844017676 9.81884691838752
Cd 9.290425703729358 14.602372719993905 12.039651572256185
Cd 13.860955608910313 11.526933923723591 9.468474745597343
Cd 11.200932017035493 11.993289903298088 12.5474078588703
Cd 10.447265064576126 11.446231202018124 9.52181426106529
Cd 14.443958524512558 11.860660928599497 12.46708689154685
Cd 12.902598731094427 13.955367857377997 10.922629774002816
Cd 7.622635366281741 11.441109788833328 7.7814541968298
Cd 13.777767806070992 8.730245013613402 11.493916961415316
Cd 10.030389826778585 10.05871450499445 14.776776856839053
Cd 15.931766255732423 9.46317134367989 13.616668585013928
Cd 9.134651525578077 14.0279390977743 8.22565155005669
Cd 17.490521721905083 8.860613385329875 11.11999505512746
Cd 15.568767089092784 9.085360657631384 8.818097311530314
