20
Energy = -6.35152729 eV
Cd 10.67513827461445 8.768724164699112 4.974445475983144
Cd 9.523420022023206 11.179655043320189 6.797437129108959
Cd 7.000278784465801 9.699726336792368 7.687152716132647
Cd 7.009606975173906 12.765473968932413 7.200851401397224
Cd 10.249575999920966 8.259978258328614 8.113094720834525
Cd 12.297372231997095 10.711163697891175 7.536892957554093
Cd 14.094086403601837 8.78455847110765 9.018558899302937
Cd 7.512904275161712 7.517371766508028 9.57471465976667
Cd 7.29571966217467 11.854354064957922 10.007613712622618
Cd 13.399292438341478 11.317840986627383 10.486613500602196
Cd 9.839144096111506 5.660878682528633 10.207110041845464
Cd 10.436287866221372 12.39019281718426 9.660450521496157
Cd 12.198293991935076 7.442703355321437 10.749110968211989
Cd 9.313045555343484 9.750610944054007 10.734337070766808
Cd 8.653602449503143 12.928082256086713 12.362853836650944
Cd 11.854268283939152 12.995853908097674 12.376186253384049
Cd 11.704918880847831 9.955650829909224 12.760274128763037
Cd 9.89837540135746 7.45954925395824 12.888565028128292
Cd 8.514433731561624 10.023331065460084 13.70552145621273
Cd 10.232362389885374 12.23642784241589 14.860343235416066
