23
Energy = -7.99550048 eV
Cd 7.072119470788999 9.828917374376179 9.762520047626133
Cd 13.441827829155695 10.09602612135762 9.556909975921336
Cd 10.739232173965375 10.371646617383231 14.274982858073242
Cd 8.310126486923378 9.731269100625802 6.778982730910523
Cd 9.28093946866783 13.04741239063286 14.171560676874313
Cd 9.800455185256245 13.625590401315915 10.456270313025271
Cd 13.573307528546891 10.059853699014493 12.800911423177737
Cd 11.233571463511742 12.275291397917615 7.980204444773492
Cd 14.24863409411767 12.668676907219108 11.35396207475762
Cd 11.250933346170592 11.232120764206726 11.299319346095622
Cd 11.00464101681123 7.030456509365439 10.310186525222763
Cd 12.562074694535285 14.63558513541332 9.761969369409867
Cd 13.848661578496316 7.526115672656079 11.055969844112473
Cd 14.985843573521368 12.473651623901857 14.371142975085228
Cd 9.162948205779417 9.136957060123013 11.81476921600531
Cd 14.277315346913348 12.66785140482649 8.256980913160383
Cd 12.158731020034168 12.76478196638798 15.494985395110033
Cd 7.616226306202078 11.912453339090801 11.913351133777661
Cd 8.079524025718452 12.295661857706664 8.474059692293377
Cd 11.597185164967767 7.702070226219122 13.231880710685743
Cd 5.9598223180046 7.825053774791447 7.713725865830628
Cd 11.82539420844321 14.072324575544812 12.756383527207648
Cd 10.467480830204446 9.517227416659066 8.905966277599696
