33
Energy = -11.93422366 eV
Cd 9.865565214634588 15.641555027097738 16.119177015773975
Cd 9.473100145235215 13.988767017015867 13.010893676127322
Cd 16.644532692989763 9.87627562075717 10.434482802369065
Cd 8.712452186767122 11.332925393069418 14.227682812918097
Cd 9.899671626166374 8.845814711650053 13.256323898421325
Cd 11.85445233967869 11.111271858451277 12.507753464884573
Cd 6.892701503368313 11.109851143393662 9.315359042163701
Cd 13.832617679245553 12.800854480122437 14.148861917227148
Cd 15.647877639264886 8.580638610311073 7.940465357364971
Cd 9.443837434778246 10.578892605064087 10.768653161872443
Cd 11.151805144206772 12.198710775027498 15.859311735006425
Cd 13.70958693692101 6.75714490913649 9.08670117681533
Cd 13.924668958682892 9.116518100933266 11.470888350622868
Cd 12.454376210014052 14.287708644114982 11.99333745763187
Cd 13.222167374053198 13.815883935644306 8.983769188036161
Cd 11.288140233526253 16.54000408800792 13.599798184742742
Cd 10.32515998695473 13.450566529002023 10.064015461166429
Cd 10.532647041086799 15.14946595102968 7.4360580928353395
Cd 11.104586796541959 8.246589635351327 9.073133075872121
Cd 6.6939195226945305 8.158741007773044 9.386959058935524
Cd 14.721122608432553 11.37100269296048 8.020601681897485
Cd 12.80499108762701 14.977681789692667 15.878337352958434
Cd 9.025045981825556 7.251971775863883 10.929178336048356
Cd 12.693931112135832 8.41923403534646 14.190586553174423
Cd 13.494065363454315 16.080754206581233 7.021817607115598
Cd 14.672143428614984 12.304891871649668 11.176545517377884
Cd 14.190205760918847 10.341489584988334 15.695265797997557
Cd 16.078712288791532 10.572509114853268 13.346779820177566
Cd 12.098423493551993 10.958859784751986 9.3490180698634
Cd 7.058680682231587 13.51406893627191 11.149057727089826
Cd 7.9363933070136925 13.62302014611929 8.053608592931994
Cd 7.913831113079915 13.44889869582729 16.145546987776804
Cd 11.971714625328122 6.880564841958408 11.693158544619479
