39
Energy = -15.17775605 eV
Cd 15.475550681599952 14.617029273350573 11.314986939176011
Cd 17.491305946435503 17.130351823942814 10.234253168314787
Cd 14.622636365333149 16.97313988835188 9.468290708285963
Cd 12.30403793740803 15.260758841402623 9.6815258320863
Cd 13.433840202003827 12.5851899216403 10.589767897607217
Cd 12.075591523411726 11.264328528226002 12.807331723674643
Cd 19.041354201830952 17.28120700693191 12.663934475275541
Cd 15.314166692158102 19.02089902933819 11.471517268247005
Cd 13.304700562047714 16.87265809403583 12.677198462305164
Cd 16.56764354856459 12.882408500050598 13.430771841537437
Cd 11.46419807103887 14.327940805998502 12.416322852223015
Cd 13.924947759005217 14.381400316931941 14.234754248845213
Cd 17.028278821825246 19.360490444366757 13.869039701457842
Cd 18.54494773145792 15.221068878179004 14.925107053165743
Cd 14.33719819022761 11.258839229510967 14.721985955754345
Cd 13.112767888175986 20.047780804999093 13.143251630718119
Cd 10.274474567743397 19.419206963362168 12.916647071027159
Cd 16.20724139774181 16.424137309637754 13.573632546559512
Cd 16.081791019959905 13.831454274445546 16.476159536519415
Cd 19.405631836747304 13.864803074606709 17.653275340041333
Cd 12.765460848478645 11.508221484769994 17.375461719854517
Cd 15.240511389215994 16.720704344550043 16.39603209525875
Cd 17.087658333766022 19.198488959492916 16.907589624796632
Cd 11.30159316341024 12.795054638720718 15.205479404104409
Cd 14.459515109355554 19.682392930949064 15.708283845125399
Cd 10.198439043874902 16.643010461192542 13.717390827253855
Cd 19.145381386007994 12.236172190699707 14.7946757632089
Cd 18.06502050647347 16.53494261016778 17.720977069621448
Cd 19.509238297413642 18.089350087395413 15.481213845716239
Cd 15.63008813266564 10.730057896112575 17.361647224837203
Cd 10.28613489274091 15.355889026448265 16.352613183872855
Cd 12.383727426591683 17.515048012594082 15.768034662170418
Cd 13.086309672379285 14.655091898176085 17.17122588705529
Cd 18.478282014436488 11.01585021064862 17.414120513367
Cd 14.601556511716412 12.997314996583574 19.229451674153726
Cd 17.11927547563955 14.580838356865266 19.653947008166963
Cd 17.358570850614303 11.369850838761446 20.251640573583217
Cd 14.987754995033072 12.09842606408161 22.09001642446456
Cd 17.681035335094933 13.646060312108041 22.528302730194593
