33
Energy = -11.78031366 eV
Cd 15.209127474223848 10.178744016979966 14.683993219563995
Cd 15.891938348676195 7.444083880794769 13.449651571867086
Cd 17.133588138830362 12.261740917675468 10.569734967974302
Cd 15.92678881471165 12.74374213954392 16.58623671129335
Cd 11.567425533314154 14.145769189937663 13.458783839347921
Cd 14.458795737763797 22.87502723076257 13.258723813251756
Cd 10.113757396974973 11.528252858200446 14.691850719769807
Cd 12.399471101003257 13.714018236509899 10.424676059161548
Cd 12.909632037713433 18.69845195377561 15.954434220368375
Cd 18.07570686978418 10.413834909667509 15.442916442808842
Cd 15.460286308294632 17.262833288423625 16.79301640939563
Cd 14.211029222607143 19.266250174443456 10.598289420406665
Cd 13.570079572973968 16.38177994859815 10.188092248782283
Cd 10.949552378806624 16.387233845058095 15.464290446223268
Cd 19.568764050586584 12.075616944715069 17.38402799569634
Cd 17.804557353477193 17.510845600944247 18.602453505462947
Cd 17.136630826292624 12.538900290450243 13.530000907869574
Cd 16.967049952280764 15.166319037092853 14.97062317161958
Cd 14.122699794347877 12.461610188841235 12.842815320370496
Cd 12.619458119538535 17.016745473799887 13.005330195547808
Cd 13.98696675381118 14.920982625168447 15.13637329001185
Cd 15.614309255927436 14.987427017930084 12.117102551293247
Cd 15.161674522399123 13.946185633189167 9.199948908116253
Cd 12.769966731188795 16.21383657420776 17.887539219159144
Cd 10.652178458079922 13.694989086985757 16.85012885458527
Cd 13.007555550766018 11.938618884837005 15.883726778278074
Cd 18.18375069278734 14.666613506052407 17.61058493421851
Cd 13.27720393432698 13.291368763313814 18.540680875848174
Cd 15.553394954938982 15.154203889768462 19.028649474362123
Cd 11.289268634310687 11.364043495508163 11.841314095081824
Cd 12.317083758709401 9.47230716717745 14.039265056002701
Cd 15.636794696983271 17.62305709619924 13.772111026984687
Cd 13.74864943923909 19.949702549117596 13.487770164945546
