30
Energy = -10.8345893 eV
Cd 8.18137347828503 13.695107565997825 12.963960234722185
Cd 15.4504640736987 10.182430679158365 14.315404635762937
Cd 11.785012330825937 14.187923171192546 9.099937687913227
Cd 12.733974465434159 11.43644573984038 7.967650903204563
Cd 13.526216624545771 7.84489606972994 14.380105870602229
Cd 15.149243599367967 14.855195239650003 11.061411341447537
Cd 9.874621318332892 11.749095170655114 8.986447726121934
Cd 14.196353678861492 9.108183342568312 9.753494291691185
Cd 8.689362692942787 7.695588453694133 9.970058757078675
Cd 16.636342672629713 10.39991205181805 11.236142155687615
Cd 10.907775156351168 14.00129147966435 14.558419137023648
Cd 13.6231608240635 12.54878810818072 14.196447758371065
Cd 9.339282536186516 11.3340909181761 14.34320725071321
Cd 13.462874006761313 15.559780164677973 13.591794399118665
Cd 11.298408364692838 9.000934430016729 9.200780244310122
Cd 6.235069341502555 9.110695089855378 10.98090564218483
Cd 16.608621210368902 12.67877270426054 13.211111224011479
Cd 7.280522663148043 11.827270535436709 10.746962295450826
Cd 15.458401581108843 7.762370145083825 12.149916372899208
Cd 10.782480712177122 8.782000353014103 14.697313346819348
Cd 11.078688360846677 17.459776905024192 14.354192799714951
Cd 10.331141023318786 15.687887757052819 11.940333135707174
Cd 12.801426364681513 10.107523085496776 12.394049854887644
Cd 14.249020998004973 12.108172235613173 10.441500217901439
Cd 8.120520537571407 8.420289960723297 13.24002027065486
Cd 16.615131651567104 15.649081760180886 13.72309224080679
Cd 8.615226446858115 14.399241545364688 9.944894231160571
Cd 9.978684992371605 10.347244736087198 11.573598988053142
Cd 11.626005141070106 12.832292767676472 11.817507598038759
Cd 12.808122430535834 16.67124711222145 10.602868666050876
