30
Energy = -11.56600823 eV
Cd 12.642650925621156 10.292850558876701 6.7208058869376845
Cd 11.221422547275527 12.742285010666208 6.054489585361983
Cd 8.925081496009936 11.679167282172834 7.587623986880406
Cd 12.027601963989312 8.815367361041995 9.244581647947147
Cd 11.832253566074682 14.805172761691054 7.998059261165345
Cd 14.386340989594345 10.935114669600868 9.119004970625612
Cd 7.20525220353092 11.919277812837068 10.085726651722018
Cd 11.396454000456508 11.91229851344219 9.742732603266425
Cd 9.182773561597914 9.440683147060408 9.548330742767048
Cd 11.630106434382986 7.317848511089488 11.754497886441488
Cd 14.073833067697365 9.076765841205992 11.515253110751464
Cd 14.165060136472649 13.861235915168274 9.700904712356799
Cd 11.424761975018932 15.83259624599285 10.734729074249534
Cd 9.13106029933459 14.107784686596172 9.631724318140593
Cd 16.553837882615724 10.787403863830393 11.209253595388788
Cd 13.06247933156887 12.095529804748132 12.231413658790325
Cd 13.74411991827056 15.214145197397247 12.409111012872364
Cd 12.73675043208482 9.38562429185018 14.145063115294093
Cd 7.436163111807903 9.324555286222356 12.004036502119945
Cd 10.257975509692589 13.559481410513657 12.413049534105575
Cd 10.449643079692756 10.45313582390126 12.250499383910405
Cd 15.509078353402378 11.179746297023573 14.03011279565963
Cd 8.982379882655358 6.992090826864088 12.940359400778075
Cd 7.712294244993506 12.140531096927898 13.016938040580524
Cd 16.231837983788175 13.616953757892603 12.333278140717589
Cd 12.0948105359287 14.24272699962116 14.654411530551053
Cd 13.146905574974447 11.826817442947359 15.775220659592339
Cd 9.957044270042369 8.844442444644875 15.066844609301217
Cd 9.984230973955148 11.936178419111275 15.311854229946679
Cd 7.233877086191994 10.000270057783014 15.108170690500456
