31
Energy = -10.51012744 eV
Cd 8.710385149802617 15.446113717922277 12.850340960478645
Cd 16.163417394611624 9.658317076788277 10.711053862938883
Cd 6.645230595526387 9.64913416449303 8.921005885062561
Cd 9.9279661643438 6.520148328595208 11.709408867552092
Cd 8.453943070862628 13.66026239669714 15.348796842662585
Cd 14.579302865268728 11.641684942529103 8.989521781320612
Cd 8.865208548345093 15.114702586015333 9.500158391550155
Cd 10.624788814048605 8.12137922651659 14.333618601534189
Cd 12.847891705861418 9.14008579926818 9.445506237482602
Cd 13.18083308757062 11.914277781143872 11.85299170124679
Cd 8.404094829157437 11.122711528948098 13.606315294927684
Cd 6.501826712602407 11.462067065623929 11.376787544036459
Cd 8.220363053586015 9.328366131392531 16.050501524021964
Cd 9.70950448420258 9.256076082887093 8.752248530342303
Cd 7.917315671895589 8.69823843824962 11.627157415873947
Cd 11.423976079468101 13.57856232634297 13.871181084825857
Cd 11.175317023591397 11.915464196160467 8.676393679616544
Cd 8.163062482163372 12.206752857364433 8.872301302601475
Cd 15.851034367233746 7.446840997647557 12.84197074217778
Cd 12.19388380281412 6.242937915908476 9.738424746876204
Cd 15.539658747025992 8.972330096915192 7.736694791338439
Cd 15.600010766971561 10.432932675356923 13.67798663891161
Cd 11.67492936181956 15.8187200489719 11.795258394442335
Cd 10.95157543964866 10.957651299930287 15.34792745202777
Cd 14.339750810062904 16.884820985870483 10.203960068472055
Cd 13.084008525103833 14.123774461366839 9.482252749782145
Cd 13.129192000919105 8.657945511039872 12.638279353176003
Cd 10.664497114186933 9.982691849783333 11.607927448717225
Cd 11.412348702305263 16.419237181942368 8.684830186637791
Cd 12.677767139195353 10.644934068213137 6.255839860216327
Cd 9.83037362034657 12.850197879237076 11.353314874953606
