35
Energy = -13.86387258 eV
Cd 13.491154528668652 16.970599714031234 13.556986476460672
Cd 8.248724821857396 8.764988524510509 12.878425956523541
Cd 16.012768975950642 8.729924758802534 13.051368233192663
Cd 13.451886498063699 8.47741297133841 11.584658127354778
Cd 15.127937814308716 10.938485228382465 7.679464882389748
Cd 12.755965012880335 10.606047577456506 9.329824752672424
Cd 11.405333195194572 14.26084261122587 7.534142671643821
Cd 10.451195562523537 11.917001300961749 12.012340637871686
Cd 11.171677399129742 9.263441118400086 13.700758845041182
Cd 14.198124239239146 13.764560635491575 6.745489365952771
Cd 10.111388505683877 11.876839169552186 8.683027713878518
Cd 11.18231237498001 16.50521198988572 15.663979568359789
Cd 10.012365213072668 13.794781242752157 15.505308326584181
Cd 15.562692318651829 11.107822231792138 14.913239909932178
Cd 12.097856103234113 14.183507842456923 13.249960825044145
Cd 12.30262665846716 11.559780453429237 15.246068049016477
Cd 8.39453071261405 13.941648936805374 13.053703617263485
Cd 13.788773953436591 8.730122324885764 15.021244906366432
Cd 8.150006661590192 10.386991422989588 10.34134021151105
Cd 14.938512419611076 14.061465866454114 14.5788393886959
Cd 10.670915088475011 8.947674197396823 10.697211009432015
Cd 8.89021718542204 11.197773534253638 14.66767179543065
Cd 10.547500089168711 17.139719174202227 12.809413427500154
Cd 15.909902185650648 10.124047238618825 10.452491110733291
Cd 10.044153469674168 15.159207905351645 10.618139651277716
Cd 17.652326721721966 6.558397151804867 14.452318480167778
Cd 13.359195988833937 11.443331333504094 12.350614719342015
Cd 12.510929122045308 13.523439117583125 10.332784660033795
Cd 7.697988027723145 13.29467617728305 10.163260807170872
Cd 15.441949772753178 13.331705555989616 9.490567302554856
Cd 14.183314118100796 16.402696452528076 16.390488073164878
Cd 14.767094727363446 15.225730180041275 11.64058888797742
Cd 6.584349204639914 11.438205350767442 12.632395580739066
Cd 12.722625047610885 13.92627172574207 16.94240899952561
Cd 16.189426447981152 12.520229533084903 12.31219878275687
