32
Energy = -11.79110481 eV
Cd 15.72384514665312 12.280786358346477 10.209006641766837
Cd 7.279332412458895 12.5137064093122 12.502928516182406
Cd 12.538830297288843 10.558225216298364 13.510100055968824
Cd 9.010399757858323 9.985069367718681 9.250917806669378
Cd 10.63670288221672 8.314409542785798 14.043021604315225
Cd 8.77477918015714 12.264873542429036 7.384715794025818
Cd 12.144074819312864 13.325240552017009 12.013324792966314
Cd 14.180565958512279 16.831598759051356 13.68339181623339
Cd 9.886958227988968 12.880819785853708 14.852357676269094
Cd 9.503796680704289 7.890657529747363 11.330266185507744
Cd 12.59212423177983 12.040700801565778 16.087202089421748
Cd 12.680407900983603 7.562860256290455 11.96154048307597
Cd 10.901539558653203 13.449800085941305 9.0440182001589
Cd 15.087676582141226 14.304114261613256 12.240459245951076
Cd 14.59448708404027 14.012826556144315 15.144421843713804
Cd 11.784708553934065 15.158188527190905 14.391376535734823
Cd 14.597116886138396 9.820601733628015 11.421209236088053
Cd 6.374224568904002 8.272475277101762 9.517122501941364
Cd 15.84371040005614 9.733685243444059 8.594465112901034
Cd 11.026419007348144 10.426338927801426 6.754049008594859
Cd 11.944399906498015 10.829769979811037 10.425123966465641
Cd 9.667646169251793 10.821903959323667 12.39782852515569
Cd 13.535621706100597 8.787042268815659 6.9629232733996105
Cd 7.605094339258416 10.979334653998668 15.111035931933188
Cd 14.487245167730942 7.158006896969012 9.470770687914913
Cd 7.965671661078492 13.976897892942148 9.935157482680674
Cd 13.607395793401377 14.479852162047319 9.56165935022515
Cd 6.2389659742145485 11.377307631830643 9.852631550651257
Cd 11.552435646964701 8.174179756754347 9.101368230920505
Cd 9.499558592408118 14.874193321170296 12.377030823819506
Cd 13.468890814572138 11.793659401375729 8.038286485891016
Cd 8.304680966235003 8.160180215525 15.869595418300495
