31
Energy = -10.85894965 eV
Cd 9.840466487961166 16.0976284872731 14.655914745159702
Cd 12.753092601855593 14.713815236203397 15.33629246082309
Cd 10.8903324730447 13.82161657674052 10.131518849636027
Cd 8.368908079924138 8.062933781745501 11.514560776474008
Cd 11.589979383916198 16.722050949851134 9.264633532926341
Cd 10.41299433194384 13.029922445092414 13.221816451285209
Cd 13.289560567640038 8.289259985405916 11.574244390192773
Cd 13.757333292742366 8.230323053213706 6.208724022708625
Cd 13.13438847629579 11.395189182844238 10.543195757467286
Cd 9.974801020190982 10.902084755405712 10.10365188640611
Cd 8.217532640138955 10.750624941450917 12.63567661961987
Cd 16.285042624003832 11.319303137434705 14.059145873775364
Cd 14.756773744879032 15.381724689557052 13.257991171072506
Cd 8.236359685479389 12.068526479759894 15.363721176530257
Cd 11.808336262670588 9.268537415591577 8.41931389778869
Cd 16.084248065084278 12.809992278390624 11.42471264127394
Cd 13.672601207871331 9.579335881637405 14.525183271907869
Cd 13.82661020483227 14.201682522953536 9.485820024057192
Cd 11.670866971870632 11.54087094736995 15.695137602047922
Cd 15.021083934253186 9.766169983031956 8.674873662994628
Cd 10.194610576394773 13.982374509567038 16.676047582223497
Cd 11.109757615218367 9.981494941906659 12.893138601154721
Cd 16.149716855883536 8.121065842800727 13.991655859080335
Cd 16.02732022938736 9.715954673035704 11.396483686542524
Cd 10.867169979426787 7.079145816777053 10.164094660384876
Cd 6.73413054117307 13.310412628950143 12.956446573516525
Cd 11.900256804842526 15.710043212298753 12.301957982105
Cd 8.763968342799455 15.38908037608744 12.00913826009751
Cd 16.048433662891416 15.686255482348136 10.602227693889478
Cd 13.488842611262614 12.527357446600075 13.288630906753864
Cd 7.933882317603024 13.14022645072261 10.038969641441527
