31
Energy = -11.20970145 eV
Cd 15.13264181026586 8.375322851684409 12.241708150761054
Cd 12.817396137454304 7.24822370509542 13.943340001862998
Cd 11.061001813203468 12.12017239544884 13.482441543900059
Cd 11.155010872109354 8.249111722873682 9.915241855935193
Cd 9.74908573585196 12.373442990207012 6.797506376007489
Cd 13.023931826308917 6.238079221232065 11.092773639856519
Cd 9.086568035076606 10.404543219811758 9.166378907555282
Cd 10.070903514340737 15.226306805768022 8.030760698201199
Cd 13.499636811029655 10.172308423082175 14.383298150918025
Cd 10.64912604220571 14.108557313518919 16.834777440885254
Cd 14.889852360968282 16.163050461675894 12.680202131778936
Cd 13.882413041600751 13.234235761733801 9.901922292166372
Cd 7.257345880505729 13.982388196971526 7.347511727593887
Cd 14.933065977500448 11.1939354253585 7.871130824970642
Cd 9.413805859921027 15.454736379836248 11.00879561298735
Cd 8.388834925483959 8.220098010149385 11.180880139393048
Cd 14.511456645077502 12.890504944319432 12.914665544935508
Cd 7.604700969832238 12.971007142937662 10.114424652161242
Cd 14.141272542643549 8.547193387854712 9.22761700154893
Cd 13.094919252710474 12.925496351310063 15.56904939551034
Cd 8.407383109676422 11.13113712433271 12.406398916811325
Cd 12.231130392762136 14.949515103715093 11.955462068158841
Cd 15.850855169225657 10.875882722678371 10.855617976821884
Cd 11.972454730645268 10.905513599286 8.228462623572662
Cd 10.61361410070311 9.028875592341043 13.063961730974507
Cd 10.729650830627019 12.675083696087047 10.503736297949715
Cd 12.711060320331956 10.45461371099273 11.366300990035748
Cd 8.436688653388364 12.757256637103453 15.107217971737027
Cd 7.238107968311677 14.170409478212658 12.770062987408394
Cd 10.038579482458594 15.14213080872103 13.982224602758777
Cd 15.666559060698324 6.069920688579231 14.31518161776068
