35
Energy = -11.80346436 eV
Cd 17.84710377815828 16.372797623793723 8.96282266255133
Cd 15.64692464433433 18.410090303949996 9.371870999917789
Cd 12.736529727505182 19.319961674854564 9.791569784914362
Cd 17.808016315461106 18.057011710741257 11.666488206392577
Cd 13.437574675683143 11.487111223274145 11.920929725450259
Cd 13.69380556279156 14.374204392399246 12.774366981523332
Cd 14.61199198003709 20.104803369860427 12.07276142623903
Cd 10.749970366144767 12.962607447684341 13.648100601327085
Cd 13.724826806080955 17.07193826939777 11.549929757246352
Cd 16.32554750817849 15.264696602420452 11.302513533010664
Cd 17.3583674870526 20.55634817683469 13.299567437128808
Cd 10.53537068134181 10.06114750399545 12.75761031907271
Cd 13.147584045637116 9.49012242528401 14.159429551546147
Cd 15.857003630174477 10.692573321357482 13.746314458325559
Cd 17.664008865288796 16.409837704130528 14.21730256352428
Cd 14.216568097989072 17.54964669702378 14.437112982647518
Cd 18.828750526501047 11.039638188675447 14.444700337437704
Cd 14.70070217919472 20.843293994591235 15.10029331744879
Cd 16.65160796271788 18.579036481835498 15.943856001253902
Cd 15.496084970377849 14.97481178549421 15.759674392854176
Cd 17.072870373269012 13.463588840674328 13.526407977791624
Cd 13.14772924398209 16.709316121812307 17.084292662767947
Cd 13.732533802479681 11.541055255646677 16.190802160327603
Cd 12.514113253333699 14.275639302206171 15.586008119902203
Cd 16.87021562706151 12.192086872994288 16.43832602977269
Cd 17.311033502325543 18.028971323862496 18.680336387580986
Cd 17.32358573778426 14.97468175812789 18.27630143067786
Cd 14.873055864207009 16.467668216101924 19.40771425436881
Cd 14.894285070176974 12.686843612038007 18.60585845882841
Cd 19.092014160825986 17.40829865882792 20.985198943866394
Cd 15.894071998605488 13.940995918670431 21.053629526771093
Cd 16.163606776207697 18.566501188952632 21.535107675871814
Cd 18.918015446273234 14.380329023076822 20.799542516337688
Cd 14.230731179176075 16.205652675637243 22.3250530863729
Cd 17.31007299934293 15.922967179474425 22.964480574649876
