38
Energy = -11.92497747 eV
Cd 19.11853054886587 14.982115487031093 22.287759105249208
Cd 22.528361994727785 19.392635701153065 21.863633249416857
Cd 20.387240139593082 20.902309753438292 20.252254922414004
Cd 21.96800420491409 18.57921088214923 18.74567872256741
Cd 17.43456777889532 21.159475727831676 19.23899289804137
Cd 24.388046983845665 23.906339005518614 16.79121347666451
Cd 21.332935329284414 24.281387752177512 16.869251068845216
Cd 1.6957925979747555 19.829385834811905 0.2611807506016621
Cd 8.458497295468158 3.2170729470746884 20.048621852426855
Cd 0.4803989980548255 2.664157974265437 16.00683585375192
Cd 0.9814379941685594 20.824230023841597 21.929383768252354
Cd 19.963487485207896 2.0832892464790147 5.230806590999862
Cd 21.56157703902956 16.48651389101713 23.197278264295214
Cd 19.69303850330622 18.26365354982923 21.57352696039338
Cd 22.645918815460327 0.26812505104381196 6.61160765838283
Cd 18.77197390775762 23.439020331099965 18.172261169142576
Cd 19.776223712389044 16.973390281714227 17.43203588265391
Cd 2.281180103158591 17.86369571823785 22.215853521512827
Cd 23.903523315117592 16.258714733886247 21.096140660740154
Cd 0.5693165168641343 18.72547453297867 19.67301623454157
Cd 24.173839981289163 19.50103522187135 16.83750031259586
Cd 16.805996065686532 18.19382042898957 24.362624554484835
Cd 0.6571267166769248 0.05357308696366052 19.91787974168795
Cd 22.939231037697397 1.529244235590988 21.551480178953653
Cd 23.096676030344398 1.8605857492961742 18.442642707516356
Cd 16.98036053014369 19.583565915839298 21.727869816619922
Cd 19.23639189744488 16.649088319367113 0.6474477343131328
Cd 17.987919208022802 15.144193739187859 19.43176712338214
Cd 16.548053192489526 16.53638337305046 21.693446241263448
Cd 20.996084203900217 24.291395403645506 19.93964503551353
Cd 23.00031619083808 22.301149711129213 21.004083579798973
Cd 11.763126767263458 0.871979180778628 1.2145169074952487
Cd 21.108980165563757 15.84194142781359 20.008664164187106
Cd 24.1313012199927 17.661864314572032 23.95997402775425
Cd 10.104675881039428 2.006217638091632 22.821275911328172
Cd 17.633875700240434 18.21016236400506 19.07391032517528
Cd 22.21998670349932 21.62816610694633 17.94250706275415
Cd 0.810767812147329 21.644867030656812 18.836376712471015
