30
Energy = -10.83660876 eV
Cd 13.357134532128674 16.31357626074751 7.765972834460038
Cd 14.264299401614752 10.145065883097963 11.331232265098029
Cd 12.629790505383587 7.598382830053546 14.716089715712505
Cd 11.425450850925246 12.098712159616344 11.657158101849348
Cd 15.646776851795938 15.956604868125867 9.771414246920184
Cd 11.646302089921688 14.542545696867451 9.518209688683994
Cd 12.904581381325059 10.59394172540831 14.071354497767
Cd 12.552796288153287 12.01796921510715 7.771611595156837
Cd 11.927151734414968 14.957779687874233 12.56634471830455
Cd 8.30467505542769 11.566075322059227 11.54257986898399
Cd 10.259656053715638 9.288854003504937 12.158958890113862
Cd 14.934302705854295 15.235735043012482 12.59393859435346
Cd 12.842452793920923 7.426594566764231 11.662165710177375
Cd 13.665117659904817 14.098897100740851 15.08133943672716
Cd 9.987293660403804 11.096088420652183 9.148271297053416
Cd 10.184915543677528 9.810130652246052 15.123503594838844
Cd 9.652294774196037 8.365337678727485 7.775542636022214
Cd 10.118913108091808 6.053203926668811 13.118178285332338
Cd 11.009894337978006 12.867868739287994 14.659403968971871
Cd 15.07028972892067 13.787170476554522 7.599272990917883
Cd 9.867866493459395 6.982191635968331 15.997355958376511
Cd 15.23542078211097 12.285513004267287 13.227454452194475
Cd 8.03262671832934 11.73741424720891 14.552750807660185
Cd 8.725988877990622 13.893520023508596 9.378520842302862
Cd 12.439872246167022 9.286371533913371 9.194964029740134
Cd 7.765722470679614 8.777811855763293 10.18799899079758
Cd 8.770118085838892 14.224802023523319 13.057162856817252
Cd 9.477297361970308 16.269864032131693 11.05439959189418
Cd 10.231345107144474 6.729423815760578 10.20202601233138
Cd 14.07798774947207 13.00088852175477 10.523158471357341
