32
Energy = -11.13262391 eV
Cd 11.037754479072742 11.29921044741117 13.292804817856124
Cd 17.525999457664017 11.56381694157535 12.306708981737335
Cd 10.64020870875046 8.801752463455086 14.981401267576413
Cd 13.446355369601584 17.34004962913103 11.555872852412849
Cd 12.225402128134196 8.770284550710969 10.619685560657672
Cd 11.899031763275778 15.00271841686462 9.448036609291451
Cd 12.484496450801597 9.859983152762002 7.928215041458753
Cd 15.00890611156183 15.344847744829044 10.162329512017994
Cd 8.801338880114518 11.808693648822358 11.3604403016937
Cd 9.83002024986002 14.060553954918886 13.259479348254358
Cd 15.04964591835358 12.329240425401684 10.743968283023838
Cd 17.689325633909863 12.59612893327997 15.442758971850632
Cd 15.020910561335302 13.58576099982109 7.807520981445821
Cd 12.94151027253817 11.185977654186772 15.830357013580072
Cd 12.336258257772915 12.723970955796695 7.205704287285606
Cd 12.014304657330195 11.815971282096408 10.504418568480355
Cd 8.574226663585014 13.386551945292254 15.877655334012118
Cd 18.53580588149759 9.767083719155275 14.537398406619001
Cd 10.137120337656501 11.114580088848731 16.85449916787962
Cd 12.777886527808597 14.286030504797003 15.352875783806079
Cd 12.259564355050514 7.1658492857224605 13.068660272456931
Cd 8.541903941446394 14.971464602406368 10.51498286849508
Cd 10.505260550733539 16.656398004656715 11.812591631666496
Cd 12.245983654087114 17.20839274747342 14.287996656990524
Cd 15.687331240546179 9.953619827546946 15.49700612841138
Cd 6.622528991280837 12.84640394700897 9.476747572933848
Cd 12.90203586275523 14.212591064221721 12.320354118985435
Cd 14.940805202817812 12.656245751761386 13.871617220686291
Cd 13.503618986576257 7.961516269342971 15.709295706109893
Cd 13.918667576288724 10.055913036389166 12.782267237579644
Cd 10.249393170040936 15.846304089471943 16.04362156583096
Cd 9.759366554981169 12.935062312071253 8.655696326141317
