33
Energy = -11.81013763 eV
Cd 11.935291698589657 13.056994506650431 12.438293786332588
Cd 9.570029818276366 14.068663444638837 14.419981859941984
Cd 15.49718418216436 14.645555358735736 18.449504734873898
Cd 13.783273089166196 14.329422118211024 14.506222042213222
Cd 8.82530132266336 8.63255051196708 10.222440541212787
Cd 10.24232404589056 11.993084722045307 16.67877107763689
Cd 12.705761512500343 13.862745542731401 9.599717370590882
Cd 12.347135769732406 11.52927000321389 6.727499100825155
Cd 15.931340098903492 10.2533904054694 14.526190942326325
Cd 10.04592958691579 11.12454599351816 13.874967312011757
Cd 11.014169734748414 15.951904572461425 12.628525343068839
Cd 8.340226776127746 5.537239736243458 10.740765639315427
Cd 10.597762315912252 16.148941622859933 9.634900399363264
Cd 13.62935283364356 17.417924301043808 13.784976731346559
Cd 14.096696088909617 8.941374974102299 11.767303747996984
Cd 10.315109216227587 11.027462303253632 9.030376392273475
Cd 15.68590292539588 12.489796730126885 16.46467379757269
Cd 9.698906241140675 13.79444780691443 8.088698989379575
Cd 12.73252149756808 13.34449990259859 17.28747360808406
Cd 13.10777520044159 11.385090302715739 14.791523296281914
Cd 16.952822918907057 18.112575012042562 14.32567247193536
Cd 16.615930521914052 15.211337925298341 15.133823800378318
Cd 13.421701996923938 16.65399839429281 10.857725263144587
Cd 11.550967696690424 15.976674536592064 15.741381504138824
Cd 15.961358317624821 7.416444330803635 13.599370105242425
Cd 15.527789099190269 14.784819725516837 11.998245335257053
Cd 12.92426812740365 16.206265047238055 18.389962490659087
Cd 16.212245461297357 17.725431175633425 11.499990167920728
Cd 14.780196115600912 11.895679735073855 12.110468127094563
Cd 17.241556780746688 12.769001291524603 13.607185394340254
Cd 13.369142916682836 10.947196469965373 9.629286492973016
Cd 14.898094101898307 17.24836141678834 16.479480727464065
Cd 11.216866357604273 9.579304153480313 11.72984869093725
