38
Energy = -10.54699442 eV
Cd 0.5844683293990615 1.6071867063853609 3.201786440045244
Cd 13.652805055952925 20.987127355723157 15.093204242758512
Cd 0.678096615639796 0.592425050945474 6.043230985791272
Cd 17.420339819544104 16.459070054753074 16.91565152248793
Cd 15.201973800606307 19.091796853045047 12.917053672363902
Cd 18.120515727185524 17.727557491181702 0.36889191567437096
Cd 4.426090641777242 16.269676267747624 14.478698832242191
Cd 16.193851635923007 16.557472033499504 14.280896864860976
Cd 3.3761042267153805 21.27717969846765 11.135161863931417
Cd 16.67579371779673 21.27389498809812 19.03176822099882
Cd 3.9656108258847738 18.720728501355588 12.646841156600315
Cd 20.62592447646075 15.821649638053518 0.19417309246780742
Cd 1.807758347615339 16.437531179322256 1.2655163548507213
Cd 16.88840202489842 20.86018613394267 11.012714928635122
Cd 5.159925746002439 0.05721091373228015 13.54453836762236
Cd 15.868438235599044 19.27610520454744 16.45826349004772
Cd 16.893388448538374 18.363390366036498 19.266737184164786
Cd 21.091474353563026 18.399684211029268 1.9522120821863278
Cd 5.394373353281066 19.014689460853347 15.713214648174711
Cd 18.908321183127644 15.959009975743568 19.406212210012036
Cd 17.844254266678995 14.65888529763948 0.5563410699142632
Cd 20.884552476689024 2.4788143580331177 0.5718382030632834
Cd 16.483772487774925 0.3174721588182391 13.949955611528107
Cd 2.2050311884955316 20.873516240237517 14.015521296057791
Cd 15.17292314179162 13.419200041019323 21.417365693653274
Cd 18.40161789062933 2.1740744455935466 2.2959138690523018
Cd 15.7191538029702 15.461380663100524 19.21022886720318
Cd 6.735731820293614 0.18813433578632416 16.211820258151533
Cd 20.56279017893867 20.573787301505764 4.339263139033374
Cd 13.328076465181493 17.790035021690606 14.944459603939439
Cd 18.11091144530813 1.1976995361514353 21.05231007784481
Cd 17.524693083547945 0.25356502098529016 4.419042857413348
Cd 19.971988818281464 2.276373903918751 5.139866736512204
Cd 2.191090476694787 0.3396409883643551 8.518486330215593
Cd 18.19280847075697 19.521099098302564 2.6997950966287707
Cd 17.14097625145048 3.392561259614913 4.882857345542129
Cd 20.33362541369201 21.244784271168584 1.2058658594962834
Cd 15.522751410353113 1.100878913317702 16.700958385636678
