37
Energy = -11.73898455 eV
Cd 2.378535467188704 13.52035022798271 15.769390362650123
Cd 12.861706182024456 16.63759465591128 13.069997564651556
Cd 13.600536527529476 12.454255448578618 15.22275710474963
Cd 18.79981567720188 16.55812395901617 12.17767753765789
Cd 12.295451188560607 0.013813768737278803 14.52585451154831
Cd 18.298655151729655 0.8249820112386768 14.48148193024185
Cd 12.100040878092809 16.46893004332334 18.866033490368448
Cd 2.061146279616953 18.692127465110744 18.981046302864584
Cd 15.868087651830631 17.00129878413654 12.33129135983146
Cd 0.4395922105122178 16.10636062512141 0.7412606528166843
Cd 11.150647572810074 18.95343279153206 17.461770395989515
Cd 13.720700694745247 0.05698796692731376 11.728018886863897
Cd 2.2161211613394447 16.03105310441136 17.42894376790307
Cd 14.31293920837689 14.009904957885434 12.818978269404615
Cd 14.63597751640758 15.670241553565935 1.2231647867469082
Cd 11.926445664846456 14.009239358391284 17.040006775362297
Cd 13.444455076053792 19.15657863267002 0.27950199088377553
Cd 16.207075030113856 11.49921488994524 15.915868197612948
Cd 1.3664224879566766 18.80911814417958 12.952290069701613
Cd 1.8644379883352211 16.150506743742433 14.361514235048057
Cd 18.83068448464927 0.9320960134081222 17.74846724439471
Cd 16.424918658087094 2.011194767479227 16.654344977747453
Cd 12.461659566658865 13.650981298791695 0.7928306698773125
Cd 11.35073266813964 14.141933774922855 13.936617503530744
Cd 18.58086527654971 18.79292919277587 1.221184964840022
Cd 15.82339188782847 18.309192648283275 1.7392668733908887
Cd 11.118144816940555 16.582179256489425 15.697132135407562
Cd 19.010360414366986 11.995134450671474 15.829857151312222
Cd 1.4987344723028257 18.619804848292546 16.008814129159088
Cd 0.45408268779329974 13.64984021483788 18.205337067818025
Cd 15.389071383819696 0.10359331754390151 14.318560229078985
Cd 17.0472260041105 14.088650951135877 11.897360819874363
Cd 14.841959673612136 12.934488114834645 18.262185238280647
Cd 13.615262306322926 1.4285567072626744 16.81214671705018
Cd 0.271416790704602 13.737601483390579 13.490663242925413
Cd 17.55151829585193 11.405931171887808 18.704760394932133
Cd 17.17146357801014 14.330960090968393 0.6428058828676216
