36
Energy = -12.67663887 eV
Cd 14.020913710283633 12.18520345375927 10.331480686614055
Cd 13.73828752840084 15.203767582772153 10.837731057821037
Cd 11.784766479324027 13.190260055821103 12.199928476972904
Cd 11.233886010443369 16.141597182578735 12.732678890180138
Cd 15.735337581474113 10.083291139370688 11.73203858392103
Cd 16.57135566613338 15.366848340854212 12.164835919633578
Cd 14.121565478162967 16.829380341097753 13.362106315551467
Cd 17.58179190747128 12.42869166791796 11.707712046090725
Cd 19.037632746491727 16.283753727522786 13.657761296170008
Cd 14.866215269626938 12.988452036920282 13.380292306617553
Cd 14.905794226675848 19.657374959665134 13.770967499341445
Cd 12.432252780691353 11.290578686822956 14.397962075805195
Cd 21.502336685873026 15.838677556568847 15.615532567687325
Cd 17.141409320861595 18.143380428401862 15.178454598368326
Cd 13.934713747210234 8.80873404794525 13.672091940017216
Cd 12.67593395162068 14.53343807591421 14.980659390577767
Cd 15.755218234828533 15.26747522025292 15.389473807532921
Cd 18.77737099360886 14.70324434401009 16.338931561341116
Cd 20.052019324853934 18.33981016197111 16.377982415978973
Cd 14.195663959082017 18.037333940723794 16.406119729738037
Cd 17.603451856537017 12.471782760941604 14.678591920710131
Cd 11.289411602255871 9.573023168299768 16.82347650109457
Cd 13.20700479744018 12.041151661499509 17.21928576906664
Cd 16.14125157763319 12.882920296679885 17.43306804911822
Cd 15.871884861536003 20.836346244980344 16.422045455936296
Cd 15.422342590549658 10.59061201703224 15.600557988760361
Cd 17.65752286606266 17.313695441077677 18.12078757139838
Cd 20.25186186254901 18.08548568413102 19.770446885201697
Cd 17.776835238762672 14.589971912797505 19.282806495406522
Cd 14.921074561302259 17.057171383957964 19.283235197571457
Cd 16.939149905226465 22.79042730535122 19.024713430986164
Cd 18.531966861609288 20.310710008623452 18.081471848364863
Cd 13.774217125067983 22.940932735460574 19.048036823702553
Cd 15.36867493865339 19.99999456028188 19.355158140083866
Cd 13.670784235672944 14.88099869179467 17.8100809102627
Cd 15.424078131909397 22.22946179208575 21.72747446226024
