30
Energy = -11.58788258 eV
Cd 14.4669567486473 10.433875342117423 14.655217514115007
Cd 11.959643413240439 13.74980277753082 11.99058964672444
Cd 16.237870937584002 11.386402163743881 9.439855458277307
Cd 15.959158114674432 12.089045028784003 16.69777565162376
Cd 10.175877722996727 17.373527996319318 11.898335867258432
Cd 11.917080408305015 8.828055416098913 15.817984131826616
Cd 10.951218527151749 14.145592065931307 8.907118561745408
Cd 14.162024340455515 9.76420842056946 8.108476762068415
Cd 9.284762728580102 15.237193385152427 13.958617833026517
Cd 12.221529252914332 16.084580681237046 14.103756565022813
Cd 8.871614893075337 14.968373270823848 10.813161711869977
Cd 13.24137560007617 12.440208532095452 9.51622541122337
Cd 12.417001639140487 8.343455033406372 10.034408800470421
Cd 9.103819558283643 12.481246059310385 12.731428122341736
Cd 11.095656389497469 10.521151695557364 8.405911946335232
Cd 16.17596884464776 14.28310592087526 10.05477559620399
Cd 10.818678962667251 11.075562795831742 17.48385131239477
Cd 14.73867840383299 15.306780458377801 12.463117050121996
Cd 11.445851408666888 11.456364473981823 14.38953183857815
Cd 13.818297325927453 13.505531953799565 14.768151892760107
Cd 14.751174293481109 12.174762200459046 12.187932761584467
Cd 12.752691059124396 8.504437047414754 13.005451653032852
Cd 8.903529416129247 12.057773811859755 9.7074485186687
Cd 13.905792090492222 9.981130432692758 17.70479773348467
Cd 11.160114452030387 10.716361783239337 11.487130699357476
Cd 10.920382283012804 13.950290123197199 16.07668408529952
Cd 13.035759378568638 17.679397219009815 11.420215729628666
Cd 13.23045785069791 12.952751291599968 17.754381701383807
Cd 15.0946409011724 9.313685191257008 11.329023226259169
Cd 13.535979149300605 15.548933522102553 9.442228311688265
