35
Energy = -11.87626726 eV
Cd 10.255509689318641 14.91038840751878 11.146837391076632
Cd 12.844479808289375 13.655062733933402 10.238773616646766
Cd 14.672917838153637 11.725975733479125 8.863368974747967
Cd 18.290123932947196 18.82532734324008 11.685690900576489
Cd 15.717190821303932 20.522455096992957 11.404066974753558
Cd 15.5463676783502 17.58616572343612 12.21707134467576
Cd 10.43161927254731 11.900347743512034 11.689065990237342
Cd 12.80288538638885 10.183254700127675 10.631683730953327
Cd 14.796347141824658 14.92483930478065 12.681092861836504
Cd 12.980542294100271 19.288928647353682 12.41556715989246
Cd 14.894864465388883 11.983476236194514 11.99189051654985
Cd 11.183033457926491 9.257368586870435 13.009755176340617
Cd 17.72358553953022 21.14013113531051 13.648517353574812
Cd 17.399068126036504 18.16562610584348 14.552778337271914
Cd 14.407634144728133 21.45555302077984 14.070110370280064
Cd 11.980662412811059 13.929813321254969 13.45517385564033
Cd 13.040056530472746 11.131352478837117 14.39733503327527
Cd 16.26273397532391 20.453053325560763 16.28452928630589
Cd 14.345729941644198 18.35951826176124 15.047675137493599
Cd 15.17212005305611 13.130057377775689 15.03324790991506
Cd 18.310659093270203 17.514949377279756 17.346712806449577
Cd 17.717555841244224 12.694607901837497 16.583545729909357
Cd 17.750771716000468 9.75058934619093 17.092811854247742
Cd 19.53671238284036 14.895499849623324 17.47675967542889
Cd 11.025471428000877 14.306830952557345 16.28472944600028
Cd 14.810423671973039 10.45227333280847 16.78669542463582
Cd 17.021007155887474 19.66641398436954 19.04253640262261
Cd 16.24323506148804 15.669609024499579 15.86232870199628
Cd 13.24847393893969 16.264175152391644 16.828472878828197
Cd 13.491438064408104 13.112270077527134 17.583232183146
Cd 16.05779930700255 10.99550994784457 19.46284834008397
Cd 17.93673288160156 13.571932000762036 19.550534861967087
Cd 15.583250851117368 16.97500717516276 18.70853217061306
Cd 15.048461417605226 14.260837385259482 19.89957824175021
Cd 16.57438844433387 12.444652973176924 22.130303126133242
