35
Energy = -11.42748586 eV
Cd 13.308291429335762 16.46838874279755 7.897232089821777
Cd 16.21015445136169 16.238741161870806 8.900707634741947
Cd 11.609702107151172 14.579400526565278 9.602081818333895
Cd 14.498938265128125 13.975204849507783 10.388433399932868
Cd 14.506154736012572 18.72624232447253 9.634398453705545
Cd 11.393364095257215 17.688342234334474 10.127066984423625
Cd 15.504451977128532 16.483356424108326 11.838860099101444
Cd 13.844638503206296 12.846537579172345 13.4771974947007
Cd 12.449352652799394 15.50424462117536 12.343308568648812
Cd 13.277957800891587 18.437191412997823 12.388227764133289
Cd 17.01134665992919 13.104673106518089 13.949237000440599
Cd 16.013275375144993 11.599761506784736 11.501380775091706
Cd 16.921063613116605 16.437574655643793 14.338787381253104
Cd 19.375067331519404 14.799211595494741 15.32284310937518
Cd 12.02397816549821 14.763404216447181 15.176041944268977
Cd 15.063371540846278 14.55307598059928 15.74012241241996
Cd 13.78562619804964 19.449616910190592 15.037846881551665
Cd 13.150842839329531 15.782921482271412 17.781426034880365
Cd 15.759323744193212 21.82208967336645 15.726223193476029
Cd 12.10392875480413 18.551246722682837 17.468162073481093
Cd 18.93364965222936 14.50683755404644 18.271693303730267
Cd 13.092590028979092 21.659130281356912 17.507308630970556
Cd 17.4687665981759 11.947256689982781 16.833348463401137
Cd 15.970825456481094 14.60658742641381 18.56190699071469
Cd 16.566225251502978 18.835668144120167 15.987792398098764
Cd 19.370351698139704 9.57959462492674 17.412586399261436
Cd 15.515410513828442 17.64859507375535 18.552015325601094
Cd 20.43239782510299 11.864311382888799 19.03309342058183
Cd 16.02535134597347 21.072918020904517 18.714591128222757
Cd 20.668967698232443 14.452622796479494 20.741993716979458
Cd 13.546696898333328 19.650647625883273 19.91533060730457
Cd 15.60105343791099 11.801802759592306 19.468928194402658
Cd 18.039910808470037 9.895360348937409 20.138804102320893
Cd 17.983431523345516 13.063717133129511 21.107273267315716
Cd 16.242898850104904 10.873082238094893 22.383106764825214
