36
Energy = -14.61156559 eV
Cd 14.050586313683054 13.628788901475414 10.208756755579701
Cd 14.977132618958727 16.393355970014692 10.299090825686756
Cd 12.64003384997116 18.26532704257437 9.983173513247843
Cd 13.437983827091932 10.874072443705229 11.019102702527885
Cd 16.769107597805412 14.091466774086285 11.527540012620598
Cd 17.053324624234634 17.11660207489673 12.572028103113585
Cd 11.440228689530354 16.37686869023694 11.795542328517305
Cd 14.12436415625727 15.656784956258385 13.09913622951676
Cd 18.05992435989609 9.219496538012587 14.39244692839662
Cd 19.114117843270474 15.098795886788354 13.342754729103564
Cd 11.333811646425215 13.363128804779802 11.405080068582745
Cd 16.12842371414847 11.097003914931358 12.187904176145276
Cd 12.120226521025899 19.541063692573374 12.76892077498065
Cd 18.754209439507644 12.075358868735613 13.172591470336416
Cd 15.007092106697124 19.134328617542767 11.745621146459422
Cd 9.878208357422421 11.67397607432028 13.493338451856932
Cd 11.253419633352605 9.428084727924174 12.186669930500235
Cd 16.013228862391816 13.674194643004231 14.45358527118649
Cd 13.364572482135817 12.725230075778876 13.555843360216944
Cd 12.023155319485452 17.252941409737264 14.762252260786807
Cd 11.156738317646623 12.652040974849891 16.134847646355276
Cd 10.526549770205293 14.680581003121489 14.055018503249231
Cd 14.79460399810481 18.4158978956303 14.624677326369508
Cd 15.432850426590305 10.559567831347934 15.10195606263097
Cd 19.068959702151776 13.467256321299804 15.892039047142733
Cd 12.471667170934534 10.095733303702149 14.848043258355304
Cd 17.107720353752573 16.352894712898173 15.424534593219908
Cd 13.671470810644902 11.676668408254908 17.32232973861406
Cd 10.744037437862646 15.725199208286325 16.990938876033333
Cd 13.613386050614272 14.62682289001215 15.884347374009025
Cd 12.600496836108778 16.428666682544076 19.1983313087937
Cd 14.812118616251388 17.081731652223315 17.299895628521323
Cd 16.608425045673986 12.35950508519397 17.169603046312176
Cd 14.628763042508702 14.20376693959118 18.746275060364177
Cd 17.381426869911117 15.143468093825902 18.06696069439893
Cd 11.576865919100822 13.582561221195485 19.008055127620327
