35
Energy = -12.81218237 eV
Cd 14.739796027918354 10.970498455068311 9.93608975896751
Cd 11.556124537070762 15.19702791157212 9.94085810716236
Cd 14.097604817574082 13.754561245999923 9.192798068876593
Cd 11.880256661024017 11.944169014160863 10.572835959997851
Cd 16.929770669513488 17.828994498317844 9.754518463308607
Cd 15.874559738352168 15.252002195487167 11.11024780656743
Cd 16.51749995316934 12.36393146880738 11.896335606771816
Cd 13.391900868272222 17.150665717367406 11.397117587585512
Cd 10.465714560234105 16.96316297597689 12.08412190712687
Cd 14.02657459422418 10.678536044838092 12.877652263835794
Cd 17.90972150325359 14.70246480565163 13.311594331525026
Cd 13.252903154968836 14.051359426733294 12.511773922973068
Cd 9.908853121442345 13.74532502146454 12.105301530641311
Cd 11.084475871218347 10.149796394619424 12.711230477919749
Cd 18.68366130429943 11.89307260253521 14.224683591815992
Cd 16.48543802088163 17.952430191235052 12.805685696143948
Cd 14.781107004391682 19.859416056130144 11.072302975178149
Cd 12.547817297439808 12.53625540102166 14.9500308897074
Cd 19.31874716125508 17.38870897123945 13.948987072515083
Cd 13.813894230399413 16.737576076242288 14.31955123319027
Cd 15.2374565621749 13.762979678222928 14.653432201651164
Cd 11.070844407229503 15.434614679101943 14.55523089543551
Cd 9.4602113805367 12.79904168438492 14.948944526671474
Cd 16.692276706123643 16.442310507508914 15.495872648630103
Cd 17.01917410849915 12.518076035530285 16.70299725417316
Cd 10.405216827646925 9.920021424940789 15.51791889469638
Cd 16.27679837597074 10.202924017654146 14.776995831416182
Cd 12.524794276546794 16.243156887322833 17.094106244783237
Cd 14.984858363327394 14.719125707109416 17.635619688956652
Cd 15.003348274364784 18.083452724504163 17.427104998983125
Cd 13.718503699915132 9.895324178322463 16.244573799591606
Cd 10.330711638962848 14.294078539530648 17.463502516376952
Cd 11.421320323716118 8.778162971674808 18.108484827769885
Cd 11.755902663721702 11.80558797614176 17.96070816541288
Cd 14.68919616485441 11.838223384075693 18.547825124135272
