35
Energy = -12.94198436 eV
Cd 13.72167760418534 14.805203819551666 12.575377101569437
Cd 8.583508869881046 14.071390816732308 14.373562647105965
Cd 10.26498189356139 9.354262316994658 16.323412449781866
Cd 13.57456609773229 6.096219716219664 12.074552306595091
Cd 13.547569196800794 16.724039929013323 16.250638740408107
Cd 11.056587662253245 12.38751614075922 15.6537979992485
Cd 13.39666738145352 8.984794694962348 12.903596082003807
Cd 11.13265054976784 16.783849170770218 11.782420444836006
Cd 10.89864033097569 15.010313017725199 9.384245838660416
Cd 14.087019434440919 17.579409694310744 11.200671728658689
Cd 15.235510693735446 9.14080071669883 15.277753585394036
Cd 13.84994519055981 15.133666349972025 9.161251918963975
Cd 17.091795321724867 12.17651843072798 14.821563512729838
Cd 16.57243011694437 16.04384896510732 12.612927588063807
Cd 8.191147649289075 11.799761455796219 12.308929381482038
Cd 11.357828694927896 15.33211069973762 14.75159081228093
Cd 12.565442756057399 12.330389935337537 8.902428081465942
Cd 18.48932176091345 15.30896803435877 10.359225369176821
Cd 18.037510555213526 9.81465645930561 16.33614210189143
Cd 14.300519732198465 12.024249989044442 16.036464179151025
Cd 14.867895405558553 12.589944493344495 10.796653663162056
Cd 13.576000463732795 19.74552958037149 16.31055764465772
Cd 17.535039335382635 13.07373450227311 12.082598232592304
Cd 10.573216003927456 11.081780342565404 10.620322805134395
Cd 10.659643858271178 13.754801894430466 12.124532417877381
Cd 16.015383133824592 10.393082100373606 12.523680012326578
Cd 16.27797233038359 16.782137576941995 9.142613930663755
Cd 8.166717894133567 11.127169101693566 15.241958742169928
Cd 12.37528677559257 18.457675360244213 13.799808108528989
Cd 15.474114865868973 18.21368652093851 14.282674663285523
Cd 10.643107873394548 9.92952908309438 13.371271395860818
Cd 13.02515970491926 9.640429382515379 17.24506933252419
Cd 15.512739592372634 14.642538468190226 15.097166999778524
Cd 12.820171389806275 14.126261452075354 17.47195141134012
Cd 13.019331920743976 12.036831828351842 13.295690811158961
