38
Energy = -15.45747086 eV
Cd 10.850988418378432 12.473231603438164 7.748801491079784
Cd 10.23392036219694 9.7532165736417 8.45260623031002
Cd 13.348879843898125 10.782818385956917 8.595749008540592
Cd 11.068159193933054 15.332129778053615 8.252268368297106
Cd 13.612298044429767 13.753593577804763 8.293810857259711
Cd 12.96964174597094 17.12429834134487 9.591319843153812
Cd 12.433408848970467 8.315850946447688 9.940227931565008
Cd 15.345341408158802 15.380134678348192 10.042663353259318
Cd 8.108501095799884 11.035350185466026 10.1037925434625
Cd 9.113830520970323 13.90663839984757 9.942570036440745
Cd 11.343629495993577 11.769042431622523 10.861898857134841
Cd 14.504314603532173 12.509218325932693 10.879455644858853
Cd 15.113983453462147 9.586828007952432 10.849899612494045
Cd 9.498144939655221 8.210002539673232 10.954302662023755
Cd 9.95805813032383 17.50096536233634 9.93613723312982
Cd 12.001430507537426 14.596092877232676 11.415688284969393
Cd 14.43486468396188 17.26727197180479 12.152689319797744
Cd 8.628657820613867 13.058770838383571 12.713949798929255
Cd 11.575584233539876 6.0152461319590955 11.698539915969851
Cd 12.423794912090429 9.651714770639733 12.686965225700892
Cd 14.417350984641118 6.838689606607714 11.804146575134302
Cd 11.442350632789408 17.578079923766897 12.655402796111773
Cd 8.747830489060242 16.134236587748365 12.17259228163618
Cd 15.975829018162402 8.292930889092862 13.906990683642414
Cd 9.980940893631114 7.272144875106013 13.800954820460465
Cd 15.631994243636123 14.396097031425112 12.978437012968403
Cd 15.812413184382102 11.304815260698133 13.30963824675887
Cd 9.429717396142685 10.290373146128116 13.055119718779757
Cd 12.52564934726896 12.508255977649597 13.530686841880671
Cd 13.03458651188568 7.121255343692409 14.515201900412633
Cd 10.55287448192436 14.879284017998419 14.199325621970686
Cd 11.0169173469194 9.370700408286378 15.581247840396188
Cd 13.973359276236257 10.11721646670087 15.300744571998308
Cd 13.360483492307058 15.761974834676625 14.420936392436838
Cd 14.66968854460386 13.174213516146457 15.697303920145508
Cd 9.889712196286053 12.220622483480932 15.404084972022856
Cd 12.260014070520675 11.63864512221905 17.15442903533607
Cd 12.137495625597065 14.50468878010066 16.82606054894258
