30
Energy = -11.51816759 eV
Cd 9.282158124309225 10.226136348516215 4.805042820220093
Cd 12.262059189239125 9.338079950969801 7.802202630475321
Cd 10.529796761029427 11.742828229933519 7.192613213003463
Cd 9.347575958578226 9.111665536861747 8.735412613550494
Cd 15.014041792497558 14.58009182346095 8.230529787506239
Cd 13.416884853843086 12.141602146338151 7.745871679484242
Cd 8.504109577760222 12.043557095288469 9.274866262765794
Cd 11.618986663645824 7.727582144239343 10.242497677893581
Cd 11.353779265501284 13.197565537837304 9.908810784283094
Cd 13.363128948778595 10.493524529883294 10.361659045464235
Cd 8.18252492562593 8.090789288210125 11.495731261567476
Cd 13.585335059917961 15.023790924035985 10.998529737836435
Cd 15.58516553492872 12.649978127531476 10.541878117922478
Cd 10.426562384293776 10.611126211981134 11.268726980171492
Cd 6.412166012085879 9.77720745301672 9.661867589457698
Cd 12.327307086669508 12.223660158375795 12.787560283595663
Cd 10.759068847674596 14.949961332788584 12.435137561693118
Cd 15.340297849474426 10.524767511968678 12.700948583980205
Cd 7.398817492044229 10.79767039109508 12.467362667063215
Cd 13.240826790384233 8.342062658504373 12.790481588352856
Cd 10.432058872581017 6.908694477517555 12.8876149942597
Cd 9.404773586569894 12.384184295265172 14.027738792485096
Cd 8.205883128081705 13.729717428952496 11.597473385614602
Cd 15.105330695483183 13.396074194845866 13.441047087994505
Cd 10.761099963187878 9.655529824572882 14.133806900952434
Cd 13.355253525472065 15.768265198899037 14.011216662958867
Cd 13.719491821442226 10.299686753424103 15.218218834877641
Cd 11.041150683951992 14.451867363293344 15.455888417379645
Cd 11.196383551610259 11.506830411541063 16.61290854450649
Cd 13.734891793686165 13.212413391199028 16.073266233031124
