36
Energy = -12.57874767 eV
Cd 19.02475814192572 14.916453178669412 8.073668199460043
Cd 11.160027215946288 16.417169120153012 10.856844028223948
Cd 21.170777360887087 17.161986985780857 8.977511722228709
Cd 20.96914796136495 14.259761431852422 10.45845624365369
Cd 18.651765606165416 16.452039984555906 10.743647856326632
Cd 17.781707671097216 13.26253091577708 11.01015106673255
Cd 13.12564046796908 14.311233627070854 11.757000353242345
Cd 13.402935566729427 17.41475397010415 12.623080342811898
Cd 15.403929184085339 12.332289040808835 12.553196952063589
Cd 16.417040695642292 17.649738293256217 12.190320556449299
Cd 9.219461145605033 15.50440477122474 12.882192882275225
Cd 19.200727900530065 14.754988149346996 13.308603319780316
Cd 15.174234272881426 15.037557816984702 13.849239883376827
Cd 12.37890095913498 11.869509526343533 13.322154320265913
Cd 8.623261892715517 17.57307315395403 14.966546258614882
Cd 11.415340054713889 18.32530077794906 14.572847942835134
Cd 9.561810043609619 12.785799960281693 14.054167936522397
Cd 14.699462464933523 11.165198414815766 15.245281687149578
Cd 17.560439532174478 15.956494141891726 15.423504457218167
Cd 12.02918707396613 14.762799451363692 14.699908220218063
Cd 20.474787979966834 12.84341078652607 15.222331954834097
Cd 14.256693621848536 13.946410598629381 16.655404180253658
Cd 15.283817089172311 18.011432170415066 15.001264023600909
Cd 17.121780232341695 12.917355365372034 15.290822161870667
Cd 12.063214188083471 11.887687163160926 16.37493891320463
Cd 8.134988172480112 15.490292650395162 16.985208959249423
Cd 8.746505189437162 12.560940885926067 16.870601409642525
Cd 12.938995649585381 16.903037791501323 16.666609231769858
Cd 20.871178874082077 14.23259360628925 17.967388646986315
Cd 17.792847359039598 14.523047915134258 18.07008700241203
Cd 15.213765678786366 14.488435852351705 19.46720160013226
Cd 19.007682613634568 11.683108470597436 17.779871378171677
Cd 10.993637688522599 14.900804875054314 17.843340389230548
Cd 15.68709875287961 16.932585414839245 17.814242921258305
Cd 12.560892307664108 13.777034299632861 20.250509499044824
Cd 10.73916631144794 11.846346363039077 19.029460419938264
