36
Energy = -13.09638438 eV
Cd 14.00672381112274 16.896338007040654 7.209974754315204
Cd 13.731748522000268 12.818626442211423 10.165883921428009
Cd 9.576387174808106 14.986978319278707 9.379522664667121
Cd 8.551329209342674 10.029054950943342 12.004421685998736
Cd 11.840750817963528 16.90557081213393 9.29154099323925
Cd 11.796098296019705 13.845679031927556 7.69581109862029
Cd 13.713198702336152 14.808712176154375 14.744138023474816
Cd 10.29974338332667 11.345767978989766 16.203876541608878
Cd 10.362518160607031 8.632933133808658 10.018592588325609
Cd 11.996734964345015 10.543669084432791 8.329333451710559
Cd 8.5815472969035 14.963826762436197 12.13777716746025
Cd 12.879536185559015 9.894860582586631 11.26606317880096
Cd 14.832510100098528 14.081379963058016 7.6672968507546235
Cd 14.697860021303413 11.895528078172987 15.801433083015015
Cd 9.333809241384115 12.246518170872527 7.83643036480347
Cd 10.738753140035959 12.215778974829863 10.775805413469639
Cd 15.49432308917599 8.538118999755023 11.801828100262208
Cd 7.6725859868959185 12.569993595083712 10.527938632721218
Cd 14.994260357853063 11.615934179102267 12.753657056348985
Cd 8.667856404529967 12.249998884317659 13.818884634024707
Cd 14.912086031878953 11.107359022576976 7.902995809845566
Cd 8.882746541959042 6.6646362811593125 18.391317331867373
Cd 11.983752132580472 12.026147734985216 13.444045848832372
Cd 12.307658642191535 13.331674376379748 17.003665836375294
Cd 10.887065726324542 8.56965829195126 13.109224669679547
Cd 15.713484925302318 9.206908121347164 14.70224195275348
Cd 16.71953193837307 9.088249135861846 9.100431491380533
Cd 11.858587466645213 14.934134907536723 11.648010276477343
Cd 14.806621927538023 16.42472055033169 10.118288413885288
Cd 10.142631376811797 8.37692710466932 16.08694944960215
Cd 17.737526676360776 9.600457411913343 16.988916732818883
Cd 7.878890989877339 9.883650457050717 8.91831095432294
Cd 12.800010722280538 9.549157648523323 15.20868628748466
Cd 7.47532925825997 14.788667559778542 15.053696948652025
Cd 15.292764039055394 14.54119043576591 12.282536213629617
Cd 10.669732945261792 14.657889039345124 14.44716778365618
