32
Energy = -11.46402591 eV
Cd 13.338302350441252 17.724873093701493 15.36398786204148
Cd 9.324515197548392 9.802813646688522 10.946342832214741
Cd 8.598476147259976 8.860344391934659 14.395259854167595
Cd 14.047688185663725 11.779608979609717 10.147398932416152
Cd 11.28422410113421 10.684932563893044 7.818100261335145
Cd 9.760344843386367 11.970419521460673 14.650579150031765
Cd 13.640097252120164 7.263674359138376 12.894189726209296
Cd 10.069079451367736 15.82174192482673 11.883934084772417
Cd 14.892775867630577 14.765031258910147 10.528153942151988
Cd 15.097513620393608 9.05692652034825 11.021997269999357
Cd 15.368647103427314 11.398032300284004 12.877210837791038
Cd 7.379880934632806 11.237442999952332 13.057831712369003
Cd 12.167204570067952 8.599102022845289 5.657490374688162
Cd 17.03138841852564 13.403449969952504 14.36199069503507
Cd 12.005301882174448 10.789480581652938 12.744527230147353
Cd 15.8082444038362 15.817346181823847 13.141740302458198
Cd 12.88013621958902 13.590522013083623 12.626201134801304
Cd 11.697760428797087 14.363391658431839 15.33232047488577
Cd 12.19817515729296 9.222122256039093 10.215713630590498
Cd 11.79930208653918 13.44471430767763 8.996215976329525
Cd 8.951133606344158 12.419761806746818 8.298151690753205
Cd 6.880565777321181 11.72741646344471 10.246226764537514
Cd 14.708605455629929 15.122028099112434 15.893984932475474
Cd 12.8963378762805 16.58527216373543 12.631148013939276
Cd 10.695543064237558 7.624721546237333 12.631743246464662
Cd 14.328221192931872 9.332402799367765 14.911175159273709
Cd 9.988780473431452 12.846933703004419 11.620822115689018
Cd 11.511380140824276 11.711842121107669 17.10243566142885
Cd 11.41471326517203 9.278358427729893 15.34175227122642
Cd 14.100196323151225 15.11208979032962 7.603576994324903
Cd 13.973440524355976 12.254368315976256 15.363031618158331
Cd 12.166076320431157 16.392886452892196 9.698817489232011
