38
Energy = -16.03726835 eV
Cd 5.196893288953481 9.40166040036322 11.65556298374577
Cd 15.828054192415486 10.90655933398983 11.146695312529271
Cd 10.202511860058117 12.436941985582127 11.113212777257436
Cd 13.574608183380194 9.604457489347508 6.51144193205312
Cd 14.816744501536935 15.923633382254364 11.459306046179103
Cd 11.667711049398466 7.351623130886853 13.770124183017026
Cd 13.899977958816896 8.79107414413228 15.363712374319855
Cd 11.0921788350259 9.558541569558313 15.886103889554148
Cd 11.79496446720128 15.392556153020541 11.289443313212416
Cd 13.472761500768074 14.530861419275784 8.86298528800864
Cd 16.35296877473682 13.706117681602386 12.992327777922126
Cd 9.500247136699416 8.844122054616083 9.047375333824224
Cd 11.817189862771233 10.303501882979795 12.589115205053831
Cd 11.945218940338766 7.4127373701042645 7.742594809077164
Cd 11.846614207442716 7.486107048243533 10.760277191427296
Cd 16.203282039374635 13.676740068800573 10.017814233397695
Cd 14.334530008489617 8.771948728479746 9.415660596040562
Cd 13.168518966800663 12.573448529548559 11.27505389416955
Cd 8.851798677578019 15.984897216072207 11.138191310417966
Cd 9.212818106521764 11.73638282604181 8.086895430365136
Cd 12.041607349984425 12.380355887674916 7.158335153920952
Cd 7.338838805241891 13.786694083005603 12.516854890368872
Cd 9.256906039907156 8.7060986984536 12.012529868811212
Cd 14.55428206641497 11.393359247384439 13.86737474139472
Cd 14.33937862894703 8.56990055209711 12.397059578617412
Cd 11.843250348153482 12.236353320990203 15.047891528784122
Cd 10.161817821555482 14.265623180203068 13.541414036796999
Cd 14.699202976881473 11.68591796587149 8.407922324242783
Cd 11.897847611877207 10.537038092307819 9.593725843849734
Cd 9.173231717236531 11.318384264369707 13.811887003791112
Cd 13.377716117380174 14.379172048877969 13.719166349216138
Cd 8.923864522093993 7.89110385274448 14.926083368671891
Cd 7.508341650432194 13.774930291602393 9.540432416382021
Cd 10.41877450460536 14.48707150887439 8.761624642959697
Cd 7.598603643093006 10.925016493624238 10.610840617253531
Cd 6.18908727163306 8.725242474388159 14.550858774853078
Cd 5.980049465734519 11.564112520266082 13.839196739851369
Cd 10.591496558016969 9.718649116780032 6.266112647621263
