37
Energy = -14.75284472 eV
Cd 13.685377728027953 10.740349489147109 8.80795401350737
Cd 12.931680958300106 13.722778343130562 8.130080282806317
Cd 14.52841006014589 15.911389977573867 9.262078622774178
Cd 11.495837395820173 8.807171359813585 7.876678641974015
Cd 10.882146723135225 11.64404966983965 7.43048088629564
Cd 15.555144290057653 13.041106950140692 9.56011115296332
Cd 16.781745927254363 15.345559758114065 11.11948646116985
Cd 9.872784355910502 14.353963293839794 8.092567849032708
Cd 12.989994426925854 9.87795008323775 11.676942977746833
Cd 13.750955539573342 13.183387741180942 12.029209639602115
Cd 11.307158926345481 12.215877394149775 10.603955367820058
Cd 8.571484834737293 11.369793249809426 9.298670341914873
Cd 10.635331213176284 8.220573893953917 10.565729737905867
Cd 15.962118787135262 10.29517698817961 10.848204097931095
Cd 17.02768882787255 12.65639408405225 12.389858799354624
Cd 9.3241051949031 16.7656649796666 9.938340216824955
Cd 14.50711931335907 17.163190459266275 11.997296975505177
Cd 9.68432697132528 5.932357500048824 12.528069721278479
Cd 15.061797849641124 10.72209473097977 13.683725940706465
Cd 11.985170047369689 7.671760268408871 13.573489086807617
Cd 16.933052108008408 12.820802743149835 15.403311284322053
Cd 9.186790636850386 9.37351703713515 12.808250737278922
Cd 7.660848191359334 14.276912323455022 10.228535216497272
Cd 7.908313533968101 11.994862117854659 12.096016513338348
Cd 15.64329096389355 15.042198168228918 13.88010592147068
Cd 13.588490482344126 13.212832583106223 15.105039166797665
Cd 11.395847877321309 11.71453103377861 13.537505066326005
Cd 11.963778530740068 15.387224656319335 10.604215262524265
Cd 9.872283903880868 14.304701896819614 12.555535583504268
Cd 12.517435886213017 15.596152748419982 13.591465580377815
Cd 13.4863488885933 9.225152313662704 15.695339212255895
Cd 7.8841179745537 11.184545931012407 14.897060505994867
Cd 15.21200490787185 11.2668875427356 17.126234872037337
Cd 10.567343300189156 14.05060761958589 15.421491853869975
Cd 12.25176693996205 11.652188043880948 17.323562769384363
Cd 10.557005381895669 9.670664822282907 15.584533957477385
Cd 9.34597545540607 12.100702538107372 17.24394001668933
