34
Energy = -12.61160929 eV
Cd 8.322874787125334 14.474446671428282 13.488600244644525
Cd 12.605594973569788 15.811186802793912 10.842004503653763
Cd 10.108793036920169 8.193543614867762 7.459900566497994
Cd 13.515254967643754 7.03711494454014 11.508016539642716
Cd 9.600012997140267 15.547169336361046 11.043747739515487
Cd 15.033074066467837 13.942550579922543 10.540981644362656
Cd 5.704026104508684 8.612977295755988 12.496450068260728
Cd 14.31355329160289 12.274785997394817 15.693746744134911
Cd 11.539320595882886 12.06340537178088 17.11941489220618
Cd 9.631900018386842 14.377771177551045 16.08622984490169
Cd 12.83250435726638 10.529004664351895 12.309725264302616
Cd 12.074357211258844 12.772017220552142 10.470661343106098
Cd 9.112185744409295 12.43774345769283 11.339237116266426
Cd 11.437718186673644 16.051558868249234 13.533824680071973
Cd 9.324162796403956 13.644667381953733 8.601793196564554
Cd 10.994100025211543 8.088322221366344 12.677168066778776
Cd 15.595113695765376 11.655520208870577 12.306378923170803
Cd 8.95120313226076 11.603503410550681 14.477092497388957
Cd 9.678954093555612 11.052503551210286 7.279626410213294
Cd 14.18385013299177 14.36624862654883 13.30856960059409
Cd 13.553666002152873 7.94004699301275 14.420685412357761
Cd 8.557398897841923 9.653307857599062 12.243123641406264
Cd 12.548281224040673 14.637459904270749 15.88548717579672
Cd 15.876807670752255 8.627143979640163 12.272819222897299
Cd 11.98649077540455 13.0595851682096 7.2258370079906795
Cd 11.36786719458165 9.913286310136979 15.122072320823515
Cd 11.328058509223794 15.919259602036545 8.16608886443185
Cd 9.918890402077505 13.677801153619834 4.840156259959261
Cd 11.977681438473425 6.785699422177496 9.127812845799117
Cd 11.478790509676948 12.823176853694275 13.418412906434403
Cd 14.408758565170162 11.937157216622403 8.433660357395363
Cd 15.733708283270069 9.915002670933415 14.927576433700661
Cd 14.180145847961269 9.320676733020898 9.69263249962053
Cd 10.734609234701871 9.98357442830669 10.133585014076624
