35
Energy = -12.52040871 eV
Cd 13.172654332633487 15.604418831739249 9.073717898181464
Cd 15.172839955435265 17.53915671754968 10.196186844671015
Cd 15.598052886078333 14.436050205948783 10.588077767459698
Cd 13.34309500961446 11.786206160048922 10.98801757867331
Cd 11.479650014111892 13.164362472021788 9.181170788777578
Cd 16.179299000004683 11.899684546318875 11.904913580581018
Cd 17.696153007601104 17.998842233709595 11.730852501442277
Cd 12.22187600956353 18.413581419973475 10.409527370715745
Cd 17.71767047351822 15.173761193186373 12.612715364883792
Cd 10.13194818928102 15.449257263352044 10.632925436326989
Cd 15.265073681424711 14.542761347559498 14.338680887427037
Cd 13.204904797744055 15.5155348772055 12.32757426568432
Cd 13.051220487714602 12.39944700339653 13.932159424296486
Cd 10.660207100531693 17.42920984575557 12.80734007901716
Cd 18.04790857194485 9.926285922222712 13.123254014701027
Cd 15.310268631496854 17.638745460899212 13.348194068724604
Cd 18.00722150347879 12.829083260279234 14.292892568214823
Cd 10.704640254294608 14.075667075982993 13.234012101573251
Cd 20.617660848505285 11.253901132986012 14.233793642476343
Cd 15.434639423970031 10.788002767676792 14.724484363480986
Cd 16.592828683066156 7.928694447521983 14.930900379944488
Cd 10.406449617319529 17.616444322769905 15.59229081064611
Cd 13.305629851421811 16.853236113478822 15.304994426454885
Cd 19.380673497375348 8.93081906070382 15.81870945190972
Cd 11.542689020390586 14.516887235689683 16.087060947642964
Cd 16.4180543742722 12.71603624973724 16.972606840918
Cd 14.412913363403234 14.804437837999405 17.370307892685673
Cd 19.277291181496473 11.811847063113282 16.94545803099621
Cd 11.73053725532807 19.701755692040656 17.3546753049685
Cd 16.83913591425539 9.800835685613492 17.372690025076263
Cd 10.300069434576676 17.285615380177358 18.59965881961309
Cd 13.62577759903924 17.56622564789828 18.2739450829044
Cd 9.41431229934129 14.368481465981278 18.367506686832765
Cd 12.170461724566112 14.964308236185806 19.446013945629144
Cd 14.547166030763423 16.251389848840237 20.86366483203139
