37
Energy = -15.67748893 eV
Cd 16.085417110940817 13.753366285888697 9.831454693612027
Cd 8.523661419180096 11.745312987133225 14.129130934143971
Cd 11.390487204425472 10.558098257867076 9.714553813778089
Cd 9.824907908123146 14.502877031755995 8.870403657283934
Cd 11.504488371004728 7.8516576844985195 11.162327583960314
Cd 15.496299426726617 11.108495901378095 11.475621587501772
Cd 12.828891418483128 12.581055297104278 11.337210984409058
Cd 12.34265708082566 7.7423849715446575 7.981640804808471
Cd 8.772676212592684 8.90023097015649 12.976472705808785
Cd 12.990605741976825 14.542766375107567 8.878271945111438
Cd 11.37166787658346 12.354731964149432 15.284707608816074
Cd 9.812595569105865 14.456855409263976 13.68692146056186
Cd 10.029946535677317 9.536623744878996 7.01091866943473
Cd 7.282763171439354 11.1842881948402 11.34742869572265
Cd 14.081017677231552 8.986036897076291 9.990137865106055
Cd 8.639821667651894 5.126013553829951 10.233806743420121
Cd 11.308769318113042 10.521042915636677 12.776112685404442
Cd 12.93269026147163 9.609963448782086 16.02447083775775
Cd 11.390377290049992 12.477529588187016 7.3180286142667015
Cd 8.750815693999591 8.983486360612707 9.901203963600336
Cd 6.836088676319419 13.898634009116373 12.80566223265695
Cd 14.341305810924336 15.634259141035244 11.353154391729001
Cd 15.991916297100792 13.746606160223003 12.978001479452242
Cd 14.055534137745298 11.667637269731966 14.125229397262272
Cd 9.921996182354357 9.676191222403476 15.802211050633248
Cd 9.891295704096661 12.625847178650526 11.25738271938229
Cd 9.63599334270344 5.892741263612926 12.812488149078295
Cd 14.175854170699319 11.740844932533342 8.623207362397338
Cd 8.521731669028618 11.72472659090549 8.4422966893037
Cd 13.813088836000341 8.85801367563561 13.027734566158816
Cd 8.358387632243934 15.946868640879293 11.237030497703643
Cd 9.610056481651617 6.702470776256641 8.021369040560222
Cd 6.838178204111796 13.841587760921012 9.76130963145667
Cd 12.971499393913714 14.531542128272562 13.844601077441366
Cd 11.357916942353574 15.468840702033335 11.324978061367869
Cd 11.454819831683478 7.505982734414369 14.434627676465182
Cd 12.970287583563275 10.112815858934436 6.310213880824791
