33
Energy = -11.70618937 eV
Cd 11.853647424774874 13.524224147558616 9.375699125898977
Cd 15.789314019882712 16.056919134351883 9.44590657383367
Cd 12.922820560414992 16.265904514275007 8.886293748962451
Cd 12.110502890878829 17.262858706824854 11.617774582426135
Cd 9.54897568202526 12.138005786469103 10.763206359325142
Cd 13.993520354586105 12.085760542780479 10.903528699510273
Cd 17.722279235206425 17.00506135422931 11.476127393962159
Cd 16.600894276022533 13.560716146120281 11.069143245238005
Cd 9.80738859386496 15.121021440159385 11.41827255151117
Cd 15.193683565604047 17.672187169684182 12.817160328665368
Cd 14.007219260534738 14.93099652912529 12.057462982773444
Cd 10.364074057088574 10.505157592496916 13.111724548100307
Cd 13.369213903754632 9.963588633613446 12.91703341256465
Cd 19.187872388163473 14.47458754324224 12.323616940622047
Cd 17.93176387467488 16.41068630873244 14.485266838140376
Cd 12.321353986864754 12.832428151906797 13.441535243816565
Cd 15.805414914218723 13.607013295123883 14.190728352682093
Cd 14.3739690824088 10.944555051649981 15.528508807825867
Cd 10.531320736333054 15.116159595441816 14.309100769825172
Cd 18.833956468395908 13.251793969641877 14.939544895252352
Cd 17.884489386890955 17.945218755329712 17.111384494761186
Cd 10.016411042799428 12.231769867484372 15.595626727986858
Cd 12.993188391928408 17.072616426310216 14.643122256475694
Cd 13.326122304154564 14.092552161218174 15.94776991105025
Cd 15.47963970683871 16.121735495135148 16.285701472293326
Cd 18.564950582710846 15.015414164458157 17.42752189946024
Cd 14.769033322172868 10.96370883049132 18.59529438519476
Cd 16.79036410213269 12.420275627935375 16.920794948244836
Cd 11.117723266353558 16.609627696535014 16.88515283056247
Cd 12.010830423971457 11.988200322180358 17.79439666861168
Cd 12.208856467223866 14.851559659006682 19.006261339508434
Cd 15.104041396300532 14.194790577422639 18.717677838451493
Cd 17.699490083451487 13.99723055569316 20.225985579092256
