39
Energy = -15.93136289 eV
Cd 16.04669322840502 15.943979975934642 9.6299665169488
Cd 10.926088347768859 13.71600904741675 9.57275257717854
Cd 15.090523278924488 13.153596664778664 10.101079519780475
Cd 12.341393107028576 11.224890792500794 10.161428941229515
Cd 10.475620206339041 12.473539517837715 12.576102304629696
Cd 15.141225602407825 10.374355075995235 11.004307825209763
Cd 13.135479492832216 15.619635251705716 10.10604944871243
Cd 18.124251222460806 14.38219563352512 10.990696930466195
Cd 17.79924431537895 11.395095307010784 11.613373340800013
Cd 10.485452954261492 16.106403000060464 11.442946073411127
Cd 14.58986006274958 18.227118321265802 10.866828379965586
Cd 19.388860595045685 16.310328321838902 13.213301207095318
Cd 13.136620703107859 14.034826110710604 12.64749478096185
Cd 9.011355608549424 14.886777734769812 13.661482219326041
Cd 15.976397189836087 13.774946299279947 13.138008875589705
Cd 11.928143921607786 18.851954462162713 11.654537645103442
Cd 16.595781950072677 16.85524467099486 12.553684137659658
Cd 13.037538913405195 10.843791655067625 13.144649201028258
Cd 15.977901164807289 10.661591789679619 13.996370461997403
Cd 19.50097906876584 15.138899629134704 15.895277892659996
Cd 13.896948975213668 16.71053908008665 13.871568244985111
Cd 19.39658486805292 13.136496312622866 13.4795850871883
Cd 10.915892080435723 17.77401437043979 14.127721028495557
Cd 13.608495257085917 9.499038526560216 15.699699088605067
Cd 14.368346046996004 13.18879467669137 15.573494367857114
Cd 11.903436184968118 14.929437411798656 15.295787960223906
Cd 11.247402009222244 11.774375767560963 15.438991514090525
Cd 16.593067152739735 15.837907565933792 15.465232063118108
Cd 14.172326599700725 15.931595192834626 17.083373024787637
Cd 13.298879542503458 11.44690327474727 17.949055362001975
Cd 17.614009001838973 12.554674869785526 15.74946310474506
Cd 18.720046430764064 14.201095521255208 18.55850126220244
Cd 11.576803832252878 16.360919627654397 18.568724911671513
Cd 9.68273757987366 17.646118534788407 16.73482198941481
Cd 16.07223692091419 10.481744561341044 17.09633162733175
Cd 15.955128407441086 13.285146996495435 18.314748115140127
Cd 8.816815963559696 14.747170768014673 16.55221485940709
Cd 10.97392747918055 13.31650788713717 17.930254313345294
Cd 13.403009669130057 14.12784472820887 19.465598731261412
