36
Energy = -13.0187819 eV
Cd 13.1538480391289 19.10483087971198 10.66178732294266
Cd 14.119898028858453 16.345933116723792 10.21901230320091
Cd 13.950173287433767 13.998050060716345 11.923500174213322
Cd 12.13209751606097 16.096193887330717 13.106604281029671
Cd 16.32529183727359 17.587443142553912 11.807671172595253
Cd 17.429280843781516 10.457764685963632 13.448532296500257
Cd 14.863056001286392 20.112770749163737 13.121995128772644
Cd 17.368359174193678 18.735298669387266 14.332344711315526
Cd 11.441961663813187 13.100655175402702 13.320420375571171
Cd 16.45779664336514 12.62210722199439 11.708044761755742
Cd 17.28476918970037 15.080772235733996 13.394074887038558
Cd 20.439906586062538 9.67825725557331 13.334028292987982
Cd 16.34719993715298 10.712178923749365 16.145216914618057
Cd 20.74153797281006 15.129044878384175 13.237745130646632
Cd 15.120600393853852 13.201212569719383 14.663711911768623
Cd 19.35059349002271 17.560548296160437 12.094762071470766
Cd 12.007006569140707 19.048663233494157 13.3936200544405
Cd 14.863512163319468 16.60075794741037 14.364797349658408
Cd 17.497975441181957 18.531966853544738 17.306471307698917
Cd 18.515596879198164 12.911482245180258 15.372652930288977
Cd 19.48875687334003 12.619407566826947 12.38241392997693
Cd 12.881801837157887 14.878426281319012 15.930174133202065
Cd 20.357529157814916 17.570233587314316 15.039032935379112
Cd 12.142135819048088 17.893024180541552 16.08860550157961
Cd 14.18091082096557 12.155271856126397 17.55620694155682
Cd 15.142764954867394 16.668320236204746 17.510758429749714
Cd 18.49779988970612 15.694380628996964 16.3683890193333
Cd 11.658334660619916 11.931818658103403 16.003021716168018
Cd 16.600065987238317 13.902442987770455 17.762881230482776
Cd 14.64897614505955 19.566924635668425 16.168088671058772
Cd 11.618064804557294 13.568440583050037 18.56371323216151
Cd 12.183648552527222 16.621191404389627 18.652660487481622
Cd 14.378631168930584 14.609500090734256 19.601663193521123
Cd 10.65525995681668 15.588703221715571 21.07224849304407
Cd 12.643231589814363 13.434198907713855 22.040704726527593
Cd 13.409753230531225 16.57991025225899 22.20057108689524
