36
Energy = -12.88035107 eV
Cd 12.957869055041998 18.080624059675333 18.766995304674953
Cd 12.218276331252547 9.615742180373529 11.674375513177372
Cd 13.735705118870811 9.454197520702618 14.285797281463845
Cd 10.147902115534873 10.605676680367 15.81394278890379
Cd 15.743185741258326 18.762039781966166 11.243760299616149
Cd 14.93083071141137 19.594147023283284 14.131025361933176
Cd 10.631756847164434 17.14225932902392 12.983058027354064
Cd 15.86043584214141 12.280397027703415 19.00459128586008
Cd 12.497137367544275 12.28511377270697 13.564293527893271
Cd 13.40908006162728 13.845116459644046 9.403614088096498
Cd 17.88833123884501 15.495454593446476 15.67805117237858
Cd 16.170934780041083 7.464358988149472 14.57375075328995
Cd 15.244040596716694 11.200198807708125 11.895189352388979
Cd 11.539565496549535 13.05450519269738 16.404117974783073
Cd 9.937326096785387 20.04561771214698 12.113818141377104
Cd 15.52490920700452 17.456748836521307 16.025771323867495
Cd 14.566674846906599 14.149885303895838 12.205825002297875
Cd 13.440345115079992 16.53574581459301 13.900516849068493
Cd 17.11518300569039 12.699766254678664 16.390260566827966
Cd 13.727846989469686 10.854471464586721 9.364714728837455
Cd 16.532436750364205 10.605812646091229 14.452199330341232
Cd 16.539799907791526 16.403272458703928 13.195998065353104
Cd 15.617322488383687 15.949060406938349 9.70722410086776
Cd 14.507903551146988 13.888343057622999 15.154329483159087
Cd 11.028791811506528 12.018130120188063 10.246384818341012
Cd 15.698865222951188 15.165460351701103 17.89298611649952
Cd 14.093555867222513 11.200154545370928 16.68554582089037
Cd 12.709962590335536 15.767852097619793 16.78413053133578
Cd 9.490143610135084 5.7688505739005755 14.568604683368232
Cd 12.908896783320067 19.328294883746807 11.937929727859816
Cd 13.15296595992267 13.498534386388119 18.834281052597387
Cd 12.833354621297138 16.573262783070483 10.731540243067883
Cd 17.340999634332924 13.361254935108402 13.313098097617951
Cd 10.969876068921977 14.341607440329799 12.105080874873586
Cd 18.22774068086999 16.97881112878097 10.754223264684233
Cd 10.93999584935734 8.40917934336417 14.09292240784845
