32
Energy = -11.03411875 eV
Cd 2.5501748942766587 14.581453300431145 15.049783527931377
Cd 2.363905172980218 12.067848485631112 16.544093711312357
Cd 0.8841855789782347 16.98295376352447 15.21947793036234
Cd 0.9443376534054297 12.283176703206731 13.752144534897647
Cd 0.7875702336042096 12.637290161398791 19.017395798765005
Cd 19.05715571470064 0.4408692825254382 15.209670535835981
Cd 18.43391237707959 14.413697121063509 15.113690612449885
Cd 18.697649341187695 11.396862399214859 16.272928650260383
Cd 0.3176521573387207 18.45963849604276 17.944953282631555
Cd 17.208971568851474 17.150766157833612 14.562973144321559
Cd 17.38302661728884 0.9746804746166602 17.836109451873657
Cd 0.6612525509533694 15.419872970561375 17.809369955329384
Cd 17.06823216720967 11.904613628755424 13.710461280613623
Cd 15.78669611384704 0.20173331441178322 15.378620580171713
Cd 17.49389325077473 13.737407339736189 18.10750216695461
Cd 16.003835742818445 14.793599626488485 13.05464912776569
Cd 15.702679306878133 11.556950152799915 16.50417606792363
Cd 15.332890748581125 2.851038844240397 19.142547830648365
Cd 14.651973119743069 17.717895689392318 12.92184505306742
Cd 13.112386245825748 0.9924440149433821 14.022054708349453
Cd 14.10104519802489 12.671619525767051 14.281333309769455
Cd 14.569253273733246 13.215235648604242 18.6636230337783
Cd 14.499948706256012 2.842742274141541 16.23423072574351
Cd 12.855694612197865 15.450481579719147 13.816299465760945
Cd 12.170505300864908 17.494154608150904 18.845954130806437
Cd 14.488108739807261 19.371691051151693 18.383611193684594
Cd 15.470323828242726 15.044965770139727 16.261589365007964
Cd 11.662209005149524 0.520790109293558 17.13656519129154
Cd 12.284745003692601 14.715521474686705 0.21853314835078097
Cd 12.142207492138724 14.777379571036793 16.619294413961892
Cd 11.552700756284459 3.13371343846703 15.693541712450411
Cd 13.53946118861391 17.573325714629323 16.020297960448698
