38
Energy = -15.77964192 eV
Cd 15.118761220727826 13.392704660228956 7.314735099839772
Cd 12.22409883639858 12.24909284244353 6.883062365807385
Cd 14.303506950753217 10.813536421446585 8.6415218453424
Cd 12.856253797322628 15.309723839171667 7.26568250542419
Cd 9.424123626077945 11.255342141644759 8.188929804127298
Cd 11.660143829850382 9.34873075481271 8.236677010634954
Cd 10.437438583622317 14.096238308254533 8.588211462092527
Cd 14.321916637756912 7.800581499420459 8.891375845276874
Cd 7.450905947858011 13.616573816766643 8.82255705124025
Cd 15.866107826992032 12.786602820806385 10.361276431612273
Cd 11.637659968116076 6.723236515441946 9.805048103118711
Cd 9.438127230547172 9.048948230662157 10.566149691524197
Cd 12.744345209742574 12.916134722869774 10.151603616100953
Cd 15.087101798467703 15.659494507420959 9.38073015056367
Cd 10.018312732978526 12.085398290926783 11.070601223388875
Cd 6.835040998649189 10.81113749083385 9.77928517424951
Cd 12.118585940886312 15.971650246990754 10.306966553039228
Cd 15.428314664487191 9.77207943629745 11.231352630080487
Cd 9.224104206996026 15.083048276285474 11.157308731638318
Cd 12.170586766204652 12.288656059025056 13.07282699295843
Cd 7.740995494188855 10.602810845518894 12.68876565826168
Cd 12.3535236146866 10.097271486963914 11.105532642042778
Cd 14.189354904701666 14.638390049737465 12.224064558502786
Cd 10.366394109158236 10.11218115978773 13.97953647535527
Cd 6.724908066706302 13.26857121045735 11.677221516687753
Cd 14.04168736815899 7.017179810291814 11.74397736308041
Cd 13.781060049962594 9.30345290599782 13.803976013362558
Cd 11.416111846800744 15.302805043478982 13.28101310130823
Cd 11.21507163115595 7.598604948181941 12.675795090205732
Cd 15.251443188794418 11.99095090341235 13.312581712056051
Cd 14.083259030965902 14.5683936272586 15.274829549385824
Cd 9.280615004535127 8.909608716338191 17.09114771371803
Cd 13.509123576791586 11.583616360536775 15.922814030937053
Cd 9.01804303708246 13.421183153716996 13.74395356410141
Cd 12.073699426422134 8.718455125053586 16.156979594767204
Cd 11.22824512309596 13.523043595989334 15.925541667211217
Cd 11.13790025313911 11.133202172746982 18.03858596158999
Cd 8.637524888675882 11.595765392238972 16.052178888824194
