39
Energy = -16.01964545 eV
Cd 15.14506798536207 14.889345324745916 8.182177478331731
Cd 13.448882802598105 16.783694178521916 9.57942637153246
Cd 16.19109433253761 12.506310249443613 9.887051557273917
Cd 11.561664315951138 15.465378282563075 11.447862415127302
Cd 12.645951275699456 13.481399218498058 9.323258818541007
Cd 17.706917507830752 15.156632328270346 9.643166790691925
Cd 13.582127446064202 17.92664098844629 12.381802806331216
Cd 14.36616870526819 13.954081685173612 11.933600307452988
Cd 13.686537922804815 10.76238709853624 9.901806592807255
Cd 9.182391469212003 15.567343735000595 13.53230743143773
Cd 16.190746620546076 16.605879427913763 11.711187208041494
Cd 18.493623647225327 13.340754794620167 11.86649289653859
Cd 16.384088362766946 11.443593978796265 12.848099093755424
Cd 10.718568904664211 18.125619898702276 12.767550336800555
Cd 12.777072926716219 10.96174534385395 12.95172101802152
Cd 10.864845132214112 13.13349622096773 13.089980631566526
Cd 14.771854227909001 8.901937532717564 12.063297050977274
Cd 13.005614427140207 15.399593851943639 14.082626344285158
Cd 16.454059086233308 14.862140026525609 14.114039017612686
Cd 11.522390063526906 11.602349680430978 15.733331336565755
Cd 18.849300652332065 12.99772610857989 14.74295620459214
Cd 15.611771826158733 9.470075292760969 14.942199240407627
Cd 14.330568093768637 12.748547056120886 14.904314899708377
Cd 10.259772083054951 17.464128573255167 15.595853715421693
Cd 13.178789233360881 18.125776555956808 15.497944792076222
Cd 14.595789578666643 15.282378116456655 16.52700645790433
Cd 10.892567577193159 14.511115031143664 16.019785066434988
Cd 15.957977916032513 17.873633208220696 14.417463883788002
Cd 12.820144310317291 8.963645473168597 15.585766688306242
Cd 16.77115401809541 11.715404250643175 16.468446701797852
Cd 11.860133776153607 16.705982435085936 17.972487958884916
Cd 17.618417676568775 14.551496441958422 16.991132886196166
Cd 15.540188745845228 13.209035248409897 18.90378260587784
Cd 12.437568743099622 13.321181975641407 18.29800433908302
Cd 17.388834723154766 17.66890517887279 16.98815727640777
Cd 13.814107282107912 15.558407424904226 19.817210870727095
Cd 14.121852248783798 10.822271486757675 17.681101439540097
Cd 16.690871923176537 16.03385820868976 19.40558881567632
Cd 14.64728307174574 18.192868729589804 18.286771295363728
