37
Energy = -13.97578412 eV
Cd 7.043374787963584 13.670814589433268 11.564438153078056
Cd 15.725878073400468 16.97947923590034 12.128259287548996
Cd 14.426466310644452 14.98149242737052 14.41816245385031
Cd 10.248769136597945 13.805456439933206 16.050813268989266
Cd 12.75360564262963 16.222058887960358 12.093621590780746
Cd 10.324342900156129 16.391518478092443 14.558023634695648
Cd 13.237231426248243 13.389628941102654 16.720188699807217
Cd 9.991202922972807 14.859063116035498 11.97362535961786
Cd 7.294661551397524 9.432738399713747 12.600264398631873
Cd 11.277068222332852 11.221921696830096 17.38896309614878
Cd 7.828415268272554 14.750619702433596 14.39684169611111
Cd 10.048566070433465 11.00506940234398 14.669973276463827
Cd 17.11769363541103 14.435643900520102 13.09535748125664
Cd 14.628772178274344 13.099188921622963 11.587124762731111
Cd 7.07555670808792 11.953419582377299 14.098376163713517
Cd 12.144323281195827 13.032372068962836 13.478492379424196
Cd 16.463880706468835 15.122963214133533 9.91070183038534
Cd 12.415564774502808 14.335493598088648 9.8991171778002
Cd 9.368836182024744 13.719225294285332 9.288897021288642
Cd 9.590129944289322 11.816514387793879 11.892252608070999
Cd 11.87523792867385 12.276466909464073 7.885738191339649
Cd 13.272768356495847 10.36887530476592 15.08031454244576
Cd 9.123087826800553 7.381362890020212 13.698733966456516
Cd 12.31336304315744 11.357806680385725 10.962774908511202
Cd 18.92260568507541 13.42404873085816 10.827505306054162
Cd 15.600608644540513 12.333516035570282 14.874278334747032
Cd 9.857155143032948 9.023059260043084 10.741112195595202
Cd 17.591783304438984 11.421329189745835 12.71597146476048
Cd 14.339957675874903 10.56811165635524 8.55791967171842
Cd 16.692298685915503 12.03368080688821 9.42291789153067
Cd 9.121604218007201 10.88726869362849 8.48607183730899
Cd 16.201552403485014 9.335860062226244 14.533629214466572
Cd 11.708517634607075 8.783786911300338 13.253712423141925
Cd 11.665572456669045 9.287843558802587 8.15517867161029
Cd 12.923311810797195 8.26262198219687 10.643379862955936
Cd 15.132448234989678 9.937165188585102 11.70106630333772
Cd 13.011956794241875 17.450683424336493 15.004370443731414
