39
Energy = -15.13857986 eV
Cd 13.721941741207486 15.853615816613548 9.430677914661507
Cd 15.008123872069593 13.270544463990044 10.219642986405566
Cd 15.656126502746572 18.170900633048014 9.426075603539104
Cd 18.181013077470205 13.03228868583499 11.112694300381499
Cd 16.962298642820283 15.751340714786645 10.760963978465908
Cd 13.08003083837567 11.2776146636609 11.848151727157548
Cd 12.587549924896214 14.411509915109654 11.989234372532158
Cd 15.742576301813834 19.98075261390011 11.790701131460617
Cd 10.498994884804377 9.523281576256577 11.699361224918476
Cd 15.571697349063975 14.01622290024653 13.102084809924783
Cd 15.9660323874121 10.61747238479662 11.182698660337525
Cd 19.414587767013288 15.327756025972441 12.678211758223547
Cd 17.727405392469322 11.215689345114559 13.493272517736198
Cd 17.55198628157602 17.733994993322295 13.02844920097064
Cd 13.211204651207682 19.43831989288141 13.635316660505088
Cd 10.342258253092243 12.483208534759678 12.713492676310517
Cd 14.352823946186012 16.970685946224894 12.29698351821804
Cd 11.871017396245092 10.844323788775005 14.80706737575464
Cd 15.732231468352206 16.15893952673217 15.126049927238338
Cd 14.826429541840318 11.10255974430128 14.266409912792637
Cd 10.842907811536207 13.9047846486777 15.338863607278936
Cd 12.328478021015343 16.380068716242178 14.43599064799578
Cd 19.022778885539964 16.521716941903055 15.448666705296107
Cd 10.374678363859212 11.45822276685389 17.27440546583332
Cd 17.12246183478517 18.336074735199077 17.057858239688915
Cd 17.951459050516483 13.816810667151897 15.004949979881003
Cd 8.613690085921618 14.456201354156489 17.21953807712931
Cd 16.21105943194178 13.875912464093936 17.61392334305774
Cd 15.980525605160958 19.716199615377104 14.779018092400312
Cd 13.780735001427912 18.13615844542604 16.450150067869995
Cd 13.832550155826993 13.795706475877463 15.501921764997842
Cd 14.2655359968025 11.32752816548106 17.271663934263255
Cd 18.2382766332857 15.887378778626958 18.270178871686483
Cd 11.898520226059622 15.932795118246096 17.61954216865882
Cd 10.54610717248676 13.620499502110027 19.352622995628572
Cd 12.384255798254493 11.039771722307547 19.54518871788535
Cd 17.078461826998485 11.25931129388032 16.444592792717867
Cd 15.051302234696577 16.52179182505467 18.651839876206164
Cd 13.581698270139041 13.943857223923644 19.223357020906565
