35
Energy = -13.22896903 eV
Cd 12.48494401178703 17.763880033497124 11.005752607498026
Cd 13.885260474434423 15.240660138436741 10.030162776050352
Cd 16.059085496019513 15.117460862295431 12.238103317185832
Cd 13.154141422021581 12.466987123676665 10.305653142630193
Cd 18.27545407680332 17.832876178243414 11.759025136709335
Cd 15.392367324879523 12.190114751124145 12.50038400050717
Cd 15.406317488502964 17.785873000538135 11.030846027202063
Cd 13.120117013557676 10.235266113657078 12.400155670784475
Cd 10.805125287752997 15.347500703411828 11.668854329901038
Cd 13.253918097278627 14.473754430990022 13.476464454018776
Cd 10.9919246910414 12.365237264241712 12.489790880221934
Cd 8.639837131422524 13.968120081352835 13.372163189406018
Cd 19.475528779863286 16.33786428880263 13.959997135232483
Cd 17.849231678556652 13.21648576384142 13.673578669236012
Cd 14.897181605395183 17.029874371582668 14.326604068271417
Cd 11.921995354526054 17.560865404263303 13.827275940232155
Cd 20.741909712278648 13.433193051873568 13.960486866427493
Cd 16.316613343542205 12.461139223986743 16.105540761918483
Cd 10.870315468187757 13.411484673812568 15.531330159009787
Cd 9.742591415381385 16.1294300438904 15.186718886951953
Cd 20.53404989745845 18.021030631919924 16.368710429354067
Cd 20.490300823135165 14.947666831806494 16.581721532723762
Cd 14.091736529551467 14.663920655330122 16.268122408043897
Cd 13.500151908398792 11.75923750921951 15.052128614423802
Cd 17.045230654668455 15.403179962897438 15.681242004344677
Cd 11.729847624793491 17.753356329253634 16.814530350788708
Cd 14.639546385232997 18.73202445311795 16.817125366830112
Cd 17.54929708419446 18.334317112811497 16.601976244208092
Cd 16.90658653456236 11.521008476399722 19.234753169225765
Cd 13.631141308894646 16.422114506998977 18.5791551967373
Cd 18.295529720149247 13.895317985093564 18.19556723168648
Cd 14.20339216801633 11.2237379101615 18.01079952146702
Cd 11.296602367738826 11.459517752701487 17.631406394123015
Cd 16.65680168571004 16.35631499697901 18.715891333803047
Cd 14.854312602656961 13.847574550185154 19.30636935123969
