34
Energy = -11.93433797 eV
Cd 15.312234760523085 12.523626534165613 9.135386007283119
Cd 16.76059644498187 15.021632496856265 10.034144595356947
Cd 15.275153831384353 17.362121639129587 11.359930095691785
Cd 12.813308389954237 13.572269058396294 10.20520496032794
Cd 19.715783532060993 14.435027799753925 10.812287229533482
Cd 15.981050083366888 10.586447423895793 11.264202828636797
Cd 11.5347167852796 11.98155833989088 12.241103220583918
Cd 12.501434364246359 16.172603495420084 11.51103922636638
Cd 18.231412405594718 12.270116003722606 12.320196344467673
Cd 15.050155285448989 13.727134011861773 12.34849959382919
Cd 17.753051839479365 19.3963523983701 12.303789145503892
Cd 10.801441977400255 16.906596193550495 13.841066691396154
Cd 11.853681579891463 9.147834963922026 13.062620791384958
Cd 18.067867155629312 16.378803238509768 12.55455125113633
Cd 14.454614791251483 10.89267912758892 13.788887398747695
Cd 9.750066841705262 14.04640564231919 13.522020259073248
Cd 12.308174962669357 13.257791053737371 14.932829785010462
Cd 8.112387865771327 16.019128511515074 15.234233663914116
Cd 12.77673066175192 9.375001141284478 15.97646390207064
Cd 15.277256316050368 13.439386495151172 15.330762320022966
Cd 12.587927080033039 18.596879256658458 15.545506684260928
Cd 15.190683737330305 18.880423048758484 14.000025292657273
Cd 16.855474772733317 16.26874999594213 15.295306107510179
Cd 13.73374289149651 15.945101618088591 14.271461457953269
Cd 15.772934841250521 8.884701925964315 15.796286142333695
Cd 18.285855174089566 13.653548720437312 14.957577980766143
Cd 17.135439594825762 11.385091300423287 16.671133692083128
Cd 9.900366556037673 14.17753460642279 16.709440525716555
Cd 15.483449050350895 18.560644861336 16.975363219405605
Cd 11.873444345876822 11.763585932988333 17.479681987163133
Cd 9.066839194176463 12.025780631124965 18.747301096216564
Cd 11.839161594623468 16.279249373418416 17.380096750505725
Cd 14.726126714466128 15.669067718971219 17.511229837003658
Cd 14.53657828235099 12.716269144506951 18.19951362016849
