36
Energy = -11.42260642 eV
Cd 17.206623490277778 12.540660607861366 7.134416454316486
Cd 17.649531720714702 15.888686408869884 7.287643925329368
Cd 19.889666581713087 13.945324380727996 8.516192152986514
Cd 15.433598374451897 14.441561497422175 9.222166074492515
Cd 17.671571014685135 12.697871480473502 10.517759014900376
Cd 17.84344668467667 15.823038327694343 10.728332180527444
Cd 12.98157802002246 14.454382048869485 10.802645243518882
Cd 13.49863522968974 12.26894566118351 12.739163885824352
Cd 16.372099989339276 11.834432617832666 12.9368160332525
Cd 13.667594158495254 16.206306796295504 13.000840003682324
Cd 16.578904463350057 16.592095749020263 13.235064824634035
Cd 13.906240385103239 19.108578552499708 13.400809957929365
Cd 16.691341100692256 9.823030044105803 15.038860586260615
Cd 17.09075252263871 14.104113267702619 14.673608591520807
Cd 17.910466985827277 18.340815734048746 15.174109820391264
Cd 13.262049572739096 17.41776384809573 17.05362115518878
Cd 15.723582460766114 12.9273344434813 19.033565728737294
Cd 12.042329925427845 15.148534018407693 15.208356559443292
Cd 10.10281248814847 16.464233099984874 17.120331512130477
Cd 14.770627630335182 14.61082120783802 16.46151687113157
Cd 20.029109711122352 14.196187180110464 15.452388170250664
Cd 15.247551465497487 19.450112591767617 15.982824385044665
Cd 12.543828297079317 12.28095641434853 15.468506132000044
Cd 14.735345348414302 11.021205564210158 16.9555582633294
Cd 13.24211071991031 20.845725170744206 17.66187774409606
Cd 10.772696760995235 19.133787286598864 18.402871143598762
Cd 16.42118148369657 17.12899791589976 17.704582450451323
Cd 18.1353744491696 11.594728010877766 16.95474596499636
Cd 19.77990728170975 16.90790666292834 16.909322784252225
Cd 14.887047121671905 17.54738731620049 20.224660312928386
Cd 18.07508855297647 14.584797137826712 17.83451896450414
Cd 18.603274521693784 12.407366409929459 20.042424133832128
Cd 11.5656249970529 16.449810108462263 19.846064734468197
Cd 13.942264898180929 14.701216055040602 20.512494705016703
Cd 12.97928577978568 19.856189232040958 20.52808351797174
Cd 10.291887848183721 18.80012918683335 21.778288053296173
