34
Energy = -12.50441335 eV
Cd 10.155519640110825 11.538811955158566 14.166631358352745
Cd 15.213927779895029 14.325549159654477 17.34322439815195
Cd 10.275199694104142 8.47402950410178 10.211031236478494
Cd 10.09822845441341 16.403755285067735 12.190085189265279
Cd 8.745731982093387 8.008560442031285 12.788587412012527
Cd 9.186998851450237 18.60746680101402 7.04820115230889
Cd 12.780194514101922 15.79731058262433 16.54126588754764
Cd 12.185033964465566 13.148998688008218 9.276888306903611
Cd 9.611548261014358 11.70950752184201 10.142695526608998
Cd 13.52026448442131 6.064819093328393 14.511396872834505
Cd 14.519392028503455 11.404526792762262 10.571788262030674
Cd 9.562297191416528 14.657239835531335 9.72710749002748
Cd 12.53111714863758 10.216313392201823 15.65670932931907
Cd 8.4251679792933 13.649953550539923 12.46976884801784
Cd 16.759310973715518 14.276094220690414 14.814807295810139
Cd 14.36899912695679 9.813482790990339 13.348764084389787
Cd 10.768327442229879 17.368349838456552 9.373026176832802
Cd 13.924186403605288 15.948613294564842 13.662853244349204
Cd 17.63356466519817 11.408490755836974 14.104099444481786
Cd 11.760595436096349 13.726906213934624 12.348824052590896
Cd 14.932735423714007 14.251406751853189 9.626693985611706
Cd 7.813706078575131 10.784732896658229 12.465769768346602
Cd 17.36255201647608 12.567776332797761 11.253172801259343
Cd 13.026000659978209 16.179140956611608 10.812602149679202
Cd 16.404350496131933 15.267594273568491 12.037163989258032
Cd 12.379310022413007 13.16611629124673 15.370128519798806
Cd 11.902799447279765 10.584788179388879 11.821711204143718
Cd 11.495757920567753 8.099073726634913 13.790606895896937
Cd 15.220155643568905 11.594585502223815 15.946406655105742
Cd 16.964018261983412 9.674570112758387 11.749602940940557
Cd 9.726049703169682 14.846539201740255 14.935555032497746
Cd 11.36540258307182 17.460730295118573 14.579221744820893
Cd 14.459421886418768 12.897033204397784 13.167166089426413
Cd 16.007247946260126 7.162246667992399 13.231556766231446
