36
Energy = -13.17509378 eV
Cd 13.277353894785238 14.588570428061303 9.607563744014527
Cd 11.08475471817306 16.479892746435233 10.312493326651504
Cd 15.6593189058445 14.680815918250955 11.678477118871736
Cd 14.539488057879204 12.029325357841632 10.36873804602496
Cd 11.574535423063713 19.49408536641567 12.045162899214938
Cd 14.00652641757577 17.225120899515648 11.035682812734546
Cd 11.548384655386627 12.152326243656814 10.517643428379388
Cd 16.27938536844269 10.767959185229977 12.301939011987182
Cd 9.808420121930846 14.21435618210362 11.837077965003731
Cd 18.363822392196234 15.732452803217383 12.277052699278155
Cd 14.417927983741391 16.174385449508467 14.195280675501522
Cd 14.497571813473098 19.887985546603478 12.57149430760163
Cd 17.734377028585342 13.068036235529158 13.57945387331966
Cd 12.843831415746045 13.76196480673796 12.854862943508515
Cd 16.672089710875042 17.953571558028344 13.470053972786392
Cd 11.52693897559738 10.326297835409521 12.779395065731228
Cd 11.562639568594909 16.716216901252796 13.275411123541026
Cd 14.013823993547106 10.58710704617392 14.245341824961747
Cd 15.02915178640646 13.43908589458881 14.931683083792347
Cd 14.04244512987109 19.01582850927818 15.42072754340778
Cd 9.611226313654173 11.570978943931994 14.697003395197024
Cd 10.11535191109197 14.507842579763015 14.808388085161035
Cd 16.97832180991824 10.314243206713376 15.22767676755246
Cd 12.295329093451778 12.59678014567328 15.76505226202231
Cd 18.47798105432781 16.17699359884488 15.253375056743968
Cd 19.884652017370055 9.155756804199784 15.699856648126898
Cd 17.48750569921954 13.59293666986548 16.650288854724216
Cd 13.429360334292355 14.714649379346161 17.481626223241232
Cd 8.430264986604925 16.758928178596964 16.010762826741075
Cd 11.844066994771499 16.895437983208787 16.247851350583048
Cd 16.036800161643303 16.325434779907262 16.932875864630702
Cd 14.189411258690141 18.248712889550717 18.372239671885833
Cd 17.633673160553883 8.752010314331779 17.929341297148984
Cd 15.202693760688966 11.57799514620562 17.610818776206536
Cd 19.179252833229345 11.3574992999357 17.701735307744283
Cd 15.752092438017325 14.189186355326278 19.33634333521857
