35
Energy = -12.22180455 eV
Cd 10.258336063472692 6.866009460341827 10.97898218769996
Cd 7.356599221283024 14.21123370499131 13.478906578176822
Cd 16.069203681832416 13.87938828209577 10.9453416170209
Cd 9.530016800129937 11.965003171893231 7.379865468198517
Cd 9.479120454433593 16.311201670982747 14.195755808905345
Cd 12.26529211356755 15.849085657170393 13.353465470438207
Cd 14.876749173103507 10.950201126588592 15.686911745239339
Cd 13.609145121271174 15.359785430337112 16.061540704153252
Cd 16.695611664654074 12.22291985136301 13.697293667836309
Cd 16.197583050475384 12.0081827074784 8.314286324097816
Cd 13.400950358287167 12.861125837079593 13.097274128442455
Cd 13.136482944428984 10.056671829563218 11.783773168344824
Cd 9.31940401494757 8.723393708453202 8.746366735010573
Cd 16.402884189116953 10.757859004158496 10.98145598606215
Cd 10.073692711950335 13.989133579655162 16.79970577107413
Cd 13.888600586662168 8.075022495439391 15.37744111946469
Cd 7.638551843348118 8.52114538272282 11.459521967553734
Cd 12.751397877072128 12.680684716938375 16.90590627660892
Cd 10.987408123368175 10.943612025613728 9.812376232419215
Cd 12.01954932048255 10.71436254642369 14.72989912449071
Cd 11.743309580667585 7.767207510036299 13.43231540694667
Cd 16.879790971720034 12.681385114481879 5.413195537522587
Cd 10.036121515477411 10.219288725706674 12.631878098599636
Cd 11.325299996927704 16.65286423523376 10.479249415936478
Cd 9.294952764975246 14.674014771678205 8.624193521588586
Cd 14.327537140245656 16.349483771662214 10.802462421626254
Cd 17.16223916082144 6.867984831811586 11.73902735989925
Cd 15.414159365943043 14.958155986472203 13.705973396795734
Cd 7.082331062584727 13.700671322192168 16.396750212421537
Cd 10.457948345190779 13.183538386029445 13.898462334273379
Cd 15.591589878233174 9.061615378215286 13.207571832401245
Cd 8.693055556523836 12.550188216051456 11.402217550862787
Cd 13.684602990440146 12.259868619312524 9.817396925697839
Cd 8.500651627736344 15.922217594463286 11.266489784994503
Cd 11.418809277530944 13.774471896268867 10.965724668100695
