37
Energy = -14.59188325 eV
Cd 11.071347357023134 13.207642248261749 16.980724740479594
Cd 13.809901926975858 15.999900080284236 14.067457696782194
Cd 12.729198329867744 16.020833283330564 11.097389108352942
Cd 11.347345017367834 15.817642641045484 15.889223950354397
Cd 11.111367062147785 17.307926436582182 13.365340709300266
Cd 16.362781096061084 15.264353232047938 12.711249848089071
Cd 12.254736159837165 10.5782544170888 17.854289666322643
Cd 15.12701479003726 13.266945000818707 14.625167409514638
Cd 9.148702703224918 10.973498418680625 17.50825216197072
Cd 12.799136837518978 11.443630128333883 14.926866042527914
Cd 11.79673948272464 13.144729096330703 10.217425221195587
Cd 15.124292441617582 14.307789525044385 10.177946668961402
Cd 13.378564306186444 15.750269983174952 8.133899436550966
Cd 16.764368325871022 12.272049160704107 12.049031864961915
Cd 9.443434456009383 15.81774099909481 11.373833294529343
Cd 11.586458619030264 13.893014312227322 13.316862692772526
Cd 9.839806040839543 11.536492986700338 14.355698954435894
Cd 13.72907557049403 11.84636557869568 12.000808110777655
Cd 10.451495523045253 16.071190251235286 8.672620848633949
Cd 13.717767664514776 8.945074681515251 13.020583073203595
Cd 8.059171720253868 9.178589842448046 15.279224123829904
Cd 15.803424486634048 11.453939934409739 9.314288567224404
Cd 13.201700526108976 8.44515078962604 15.950021206934156
Cd 10.3785020588744 8.111152423852431 16.97917183156219
Cd 9.083508058890267 12.900373419427748 11.844471689576727
Cd 14.30826921139596 12.990361180352695 7.350887010149687
Cd 12.973007994786958 10.62366146280184 8.765740366790409
Cd 11.452584781565983 13.695768466720663 6.952939548540394
Cd 8.813304524077417 13.580185353772682 8.554530032295492
Cd 11.081125799941557 10.435006122618958 11.596907051322304
Cd 10.700368221208334 8.45224179335046 13.946188013100604
Cd 10.350334030866136 11.001482074108464 7.25505107620053
Cd 13.601200779490297 7.932266714757249 10.105260637270796
Cd 8.595996629411788 10.786760469686342 9.783482572029484
Cd 10.63095001606956 8.60485056845042 9.085102810050339
Cd 11.14166367021951 6.944785951006514 11.507007942106483
Cd 16.076524541226632 9.243251732829275 11.230224782716313
