31
Energy = -12.14144976 eV
Cd 11.93211207058507 12.81257980973007 13.720306736020694
Cd 7.666857913384456 9.400850407772836 9.599980523154484
Cd 14.87589770544533 10.281436366456841 9.118494435851012
Cd 13.076471126694537 14.803082054685483 16.29362150973778
Cd 8.375212612279945 11.22014688866948 14.029808614837172
Cd 11.671450465282076 10.539805957386035 8.812299361346236
Cd 12.771392286168826 15.122857535629162 10.402194899196344
Cd 11.406842547967424 13.082640592379509 18.027910624099675
Cd 12.796233627684837 9.611214930018269 14.559371959697186
Cd 8.285980192096037 14.185247026181587 13.20232409114476
Cd 12.058817838018257 7.71830418750942 12.428210156610461
Cd 16.971432865916896 12.59229527597825 9.277742389655485
Cd 13.064915352327706 7.8958144058192214 9.525823901652657
Cd 10.13949914383102 8.052179586553725 10.143676471485753
Cd 13.651892857409294 11.746669182484705 16.43620180159528
Cd 15.146245189303107 11.96402558425753 13.892086986406975
Cd 7.688588245302981 11.880400036987652 11.271390796366463
Cd 10.96548408062898 15.723729259420102 13.080812523526587
Cd 13.075246911294428 11.849556893541132 11.19402629542484
Cd 8.886756103611141 11.894568935926394 8.433703435390715
Cd 15.4447867996071 13.883775078001797 11.456915660339044
Cd 10.529419553627815 11.207707887816316 15.921078666063707
Cd 10.3229186140342 13.43465475478279 11.021128657172587
Cd 10.612023509569106 10.417929709438248 12.127670495696034
Cd 9.969761231913633 14.369266152250946 15.673940175114133
Cd 14.111528421541472 15.283998162265696 13.669817700201266
Cd 14.185170971211503 13.192048615290924 8.410784577070956
Cd 17.033351998676604 10.96453446128781 11.730335539471389
Cd 13.115289416917173 17.693986748329213 12.030052456438984
Cd 14.581696442811527 9.298632729598847 12.087302310926315
Cd 11.300424238948391 13.589761117641746 8.134686582396247
