33
Energy = -11.99512792 eV
Cd 11.04572790056069 8.408395193705568 6.641871313242036
Cd 13.526037873418586 15.990425737913624 10.582253801630003
Cd 8.597008531461876 14.58683971055703 11.335602555359488
Cd 9.855032690046606 9.89231906498059 9.589193391581894
Cd 10.606200576550183 7.402016517409823 11.232321424968212
Cd 15.20545912102812 10.110529103287494 10.015012523969457
Cd 7.17266124480891 10.606249154276654 8.089299905743552
Cd 12.752952118556713 10.585306469368476 12.050293524038532
Cd 12.131205404420982 12.021304277834512 9.172393886280739
Cd 10.584999725491619 7.879535447307257 14.177788621266645
Cd 14.23626466226714 13.169239523300977 11.268200168563908
Cd 9.10379541511843 12.880751681217173 8.845842098552733
Cd 12.060614821500828 16.546511569442977 16.2665434624592
Cd 13.766509928531539 10.392537435155349 7.244315162598591
Cd 13.620413095313479 7.705195774476603 12.086413103696222
Cd 15.217514026004663 17.978691927692932 8.922137941356056
Cd 13.868925770737214 12.800168011114154 14.337279432583294
Cd 12.64584729352465 15.335079910411139 13.469647394703546
Cd 14.978627345359076 10.102128595574056 14.567394366244466
Cd 7.446050707814323 11.63390704545783 11.127637170612442
Cd 9.3869868322867 15.783350263330876 14.06508265354733
Cd 11.143908429834566 13.030022416670596 11.924193481071939
Cd 11.147150326358235 15.002452583650872 8.974113388926758
Cd 10.75107309989004 16.73521929392172 11.544135948338937
Cd 16.515779079747254 11.649608828474863 12.352345830147431
Cd 8.637880871816215 12.704820426109473 13.84616874731698
Cd 11.786057193557113 10.607429023948011 14.99533580504789
Cd 16.493257788508675 8.636698886102431 12.349447643397175
Cd 12.64719759788919 8.451731715718035 9.356061448726534
Cd 9.733694236964643 10.231568771705618 12.592043413465051
Cd 11.092273255945004 13.564426950968253 15.53068501679691
Cd 13.397449621085288 7.680115591474983 15.11525765748299
Cd 9.85352685731109 10.903506541151199 17.341771159993026
