36
Energy = -13.899272 eV
Cd 15.471733139114102 15.669660304940937 9.931543002288656
Cd 11.44261619566895 12.136968996587301 9.21311516844032
Cd 16.246987790724827 12.804647865213848 9.756758738224393
Cd 13.103867986731794 14.09074507937748 10.736691467657577
Cd 10.22092858400376 14.708624279466749 10.75910146411178
Cd 15.51037145475976 10.14502057557237 10.68879345879571
Cd 12.604955779337878 10.530919080915325 11.518110288924769
Cd 15.168667501259074 18.45619788279605 10.9769649451903
Cd 14.927801581863589 15.518173625478752 13.004204020342696
Cd 17.57446739035629 14.080508168773532 12.42913096012138
Cd 9.620589247071614 11.628225120270235 11.532630610741936
Cd 13.324951767009665 18.003647711830883 13.298363349604656
Cd 17.99596230442052 16.87585086048056 11.276118099627036
Cd 9.280347080491769 13.774012490808769 13.581944038443172
Cd 11.940776840317488 17.47197741631667 10.604197058181652
Cd 11.832032730007073 15.233427840922007 13.423401797169323
Cd 14.64960129003376 8.879391429389567 13.33675885524339
Cd 16.902004410221075 15.561780108718558 15.235232428182238
Cd 11.908941271698254 12.093602918043635 14.018115607390754
Cd 10.474912472339492 9.2761370628506 13.401857162231083
Cd 14.737089102755048 12.514475687678972 12.67705607846513
Cd 17.050967595190087 11.178965643772171 14.006492801194051
Cd 16.91288939411291 18.527286827210702 13.504366650113377
Cd 18.93140425209893 13.265878547735243 14.984039507365488
Cd 9.023387902775008 12.850520026846233 16.37907208116294
Cd 14.448089396719947 10.842351585594567 15.59490014968544
Cd 14.173236856504875 13.887405936081631 15.344916160447218
Cd 9.504988218659436 9.935688720443219 16.079671157201165
Cd 12.431541996225917 17.09931989468747 15.923854409954748
Cd 15.232997920834828 18.090526463582503 15.896651662376163
Cd 11.498446713557497 14.506250949199705 16.770913719826666
Cd 16.678372802132298 12.802673239258148 16.84121258205423
Cd 11.899504208634864 11.536831165317091 17.143911963033545
Cd 14.623105766764047 11.68646039115697 18.59931175377158
Cd 14.981223302037087 15.63557401917898 17.62441528440076
Cd 13.060934955873835 14.090969285811145 19.29687872034158
