37
Energy = -11.12475234 eV
Cd 13.633450511549285 20.15782575832375 0.42066158900345624
Cd 2.8783079348711613 0.7947250507096332 15.684181501445273
Cd 4.077084101931813 18.929940599759245 20.227075787010087
Cd 19.84509881048003 17.148969760578172 0.09232917315431176
Cd 16.533992473804602 19.345634290422435 21.545296374555253
Cd 19.397701569284344 0.5500173252083402 15.915703253323885
Cd 1.2371979048830544 19.52014996744648 19.515397663988907
Cd 17.08023344651631 16.388666552841944 21.931499798263644
Cd 4.087666585726714 17.962143816929583 0.7869179038417273
Cd 21.34632490971321 15.570958283885625 2.1141200713218944
Cd 18.57331096006987 20.96325807268402 19.901423715304393
Cd 17.424306554719557 21.79004141956842 13.785947887549524
Cd 14.995400290065284 20.057500873735616 14.891344659150867
Cd 15.581335051018513 21.02407343590682 19.102350085398612
Cd 19.790892675085733 20.045563405574047 14.669127577152274
Cd 20.845557377396435 19.28765908466222 20.529204618268295
Cd 15.54993464864114 16.37075498224481 19.45112383997003
Cd 19.319713262772677 13.536614926885179 2.8549365334693766
Cd 11.213730729153298 18.177282272383806 -0.3527785254681706
Cd 15.316329968834316 0.4483667539259356 16.278011212414015
Cd 15.066865608789886 18.431337374599675 17.375361754290036
Cd 2.47661799854674 20.648380291535602 13.911897374965195
Cd 3.1390920300213607 21.86281761097365 19.574221212235308
Cd 22.1674908366331 19.144026879837206 13.09938236593049
Cd 17.57408747373096 1.0088526803125288 18.231693394639542
Cd 19.131818855728845 20.16341214348065 0.7150298278313083
Cd 16.66326639671403 14.108782884020242 1.496158467534428
Cd 13.33553190119596 18.97726371479827 19.785331424241544
Cd 21.13215537064237 18.639748121061036 2.5947882519332532
Cd 1.6468088214027083 16.968445919073016 2.2464412959160316
Cd 0.8812869599967287 19.183756342610145 0.27506379839469525
Cd 4.288139535521279 1.9815754377029804 18.118609743630035
Cd 2.1794223027610293 20.209979509591122 16.870263166346724
Cd 0.011514273007453116 21.923537575413217 15.574888139650348
Cd 14.570946785603502 0.3432427465073854 13.19421386705511
Cd 14.172058406940668 17.070382255678823 0.0768438660193858
Cd 17.78426829531771 19.999018303941302 16.902488424240772
