34
Energy = -12.59952184 eV
Cd 9.999291558705215 11.49583753491453 10.505555190739141
Cd 11.224647043001871 13.617319769168242 8.783796819411398
Cd 14.068289628510147 13.912936902230943 9.324789369409174
Cd 17.037165327899466 13.85693287868824 9.418553934883233
Cd 12.853367981558256 12.42553563344879 11.597730444973243
Cd 9.455400080272552 15.241890925265283 10.496366656000449
Cd 12.582067765881268 15.614962015581186 11.486039066389198
Cd 15.574446951172332 15.752233927817922 11.482963807360308
Cd 10.193364118095705 13.462701558909105 12.954826904008499
Cd 15.848161407766364 11.900313184833697 11.631229977949177
Cd 12.990306041204892 9.322424709294964 15.250188007394154
Cd 15.788354411165589 18.524520309392962 13.075946622997524
Cd 17.96353558534872 13.845453985876217 12.33806172732631
Cd 10.221826427880291 16.54865257090217 13.047532224271313
Cd 18.21764874085983 16.715197610517357 13.6642310255632
Cd 14.077148660438704 9.705924407124298 12.506364956966829
Cd 10.97545053471533 10.643324607707363 13.403213933854179
Cd 17.763366177121053 11.286777015731051 14.37961343228825
Cd 19.37085399992501 16.617061901128857 16.76205069773302
Cd 16.566626715634353 17.960556230038947 16.03690940264567
Cd 16.04272192306359 8.873215122964787 14.808973106803105
Cd 12.230431422208515 14.813846372759045 14.793584952881211
Cd 15.086994754208751 15.599797653464531 14.409432803475156
Cd 10.74550121940627 17.46840584102363 15.819252855124608
Cd 14.52113402515117 12.7071982976113 14.183223016788018
Cd 18.936597111565398 14.066462345154868 15.084774366846394
Cd 12.488039820483753 18.056365241496437 18.18721670347441
Cd 14.584163597651129 16.05790148752647 17.343131357130375
Cd 15.2657853245139 11.024565545476792 16.742659737329173
Cd 12.202976205407328 12.088031815911886 16.09727636387345
Cd 11.878506609002725 14.565990242305013 17.79965544887853
Cd 16.46756653979035 13.812111693786907 16.56335069181168
Cd 14.30950742296556 13.163446906838836 18.628762155715496
Cd 9.76786301966561 16.551211907348833 18.69185038994605
