33
Energy = -12.66009651 eV
Cd 10.25267674921695 11.41221702715164 16.01298267289486
Cd 10.412748424335179 9.845990801144268 13.241532037363084
Cd 11.243531101767163 14.48989103603171 9.246885226473111
Cd 14.90244208479827 8.342676896951348 7.911933621622825
Cd 15.713747315082038 14.120837898985204 11.891066469696996
Cd 6.559095079652666 10.844833843271605 13.313664755416
Cd 8.541321129978495 9.529038825511517 8.79002156807462
Cd 10.789494470787627 8.205668578194254 10.648249537830152
Cd 13.339113627706807 15.757073641919858 11.108158869056702
Cd 6.578606395181469 7.2310342069416365 8.40007877590906
Cd 11.728778939291029 12.716653852400356 6.865123591002863
Cd 12.756984756815465 13.091781954779655 16.368371842102132
Cd 14.222303244159834 11.19932643436698 7.4029738597126675
Cd 7.276032963024351 11.67997572486538 10.50997386617421
Cd 12.130910531999378 12.578307296929886 12.687952346118726
Cd 8.410531092224593 14.435689406903558 10.338079398180719
Cd 14.956216843586907 11.119296095406492 12.380455366346164
Cd 10.635969273349792 11.47737832321433 10.486771567491152
Cd 7.959036754923312 9.567921647522454 15.569545961147764
Cd 13.016060063057289 10.514449037047074 14.818019428109624
Cd 10.523868331991332 15.279888167397122 12.206169587476259
Cd 7.9445682569850495 8.646010098408977 11.644091153113076
Cd 10.295573569704377 14.2161058839542 15.047476152220685
Cd 12.256890009427865 6.761241006895602 8.349414141203892
Cd 13.307009193992759 10.044382670286202 10.183130708454206
Cd 8.972434654529511 12.40994212867781 7.975695592969488
Cd 13.109853439610403 8.45491758978888 12.707395768221263
Cd 15.120196798549172 13.065623810928978 14.632974300372236
Cd 13.72495289292267 12.93379669695934 9.905147053535497
Cd 8.897244881277274 12.698522391618718 12.968813775056777
Cd 14.432689409657533 6.860515915574151 10.502284575873016
Cd 13.070526006539717 15.235674875584483 14.03622075516944
Cd 11.376532385393531 9.714653799856942 7.7435598450117356
