38
Energy = -15.68800723 eV
Cd 9.935240860259269 10.620691043769055 5.215285297132463
Cd 9.168309390703188 13.456553573903095 5.892934533186457
Cd 7.1881224793534475 11.255562562926801 6.210017762715027
Cd 11.903942819806625 12.242109770209725 6.7391705360934635
Cd 13.003527486096726 6.815564531289176 8.582040943104369
Cd 8.569932785429161 8.741133226103189 7.236691239738022
Cd 9.863025367559468 11.187512213981265 8.89319037480118
Cd 7.533400402840856 13.14882205618978 8.53442932572702
Cd 11.839733675900934 9.255733599668675 7.2860532854925175
Cd 10.334371344617075 14.369018036238216 8.516103875169916
Cd 8.318797186501204 5.707392101681537 8.206901635587
Cd 6.71338449027352 10.307908051546303 9.06193242757324
Cd 14.49554107290615 10.243694786617358 8.593826726866709
Cd 15.467420061140212 7.65680958244391 9.936842568335637
Cd 13.990458672233977 14.55384870469969 11.601914480985224
Cd 10.238363434496558 7.87901584638574 9.590997068976629
Cd 11.209101252400503 4.9474244009821735 10.272553320877742
Cd 12.741289344416998 12.728006523741046 9.532407240591661
Cd 8.923490127212002 9.848433628092089 11.436192348900148
Cd 13.36703300851901 12.135463147313384 13.42012138321434
Cd 6.556755252917525 11.730025396805203 11.662650517988167
Cd 6.816597134970422 7.710211994641886 10.352396848176348
Cd 8.502821227930957 5.191783397439092 11.315298008891238
Cd 8.488575009859016 14.064364676179665 11.171860915452726
Cd 12.247363526788691 15.193819859220772 13.8534735911433
Cd 14.909673992241109 9.614346475996802 12.045984936812676
Cd 10.074804606420761 7.499488294753637 13.04383660471563
Cd 11.160974418449127 15.636007493647618 11.045923896387789
Cd 15.532838904958258 12.150816912963469 10.73924367717905
Cd 10.729947575269378 12.154586555385919 11.837238767525777
Cd 12.157677593606845 9.879587280769456 10.565709870058475
Cd 6.744588186642316 9.67889722609717 14.008824183070084
Cd 12.980660993456516 6.9617268734287565 11.724650946522882
Cd 9.581813383097929 14.184558674836778 14.004530707497898
Cd 7.065504435542133 6.974269697323943 13.232612840794745
Cd 7.448522794162729 12.419546585696743 14.535772764269264
Cd 9.763060270793765 10.466859801689973 14.406350681401022
Cd 12.367075169503071 9.322145154620278 13.627773606323709
