39
Energy = -15.68412144 eV
Cd 14.859431652607501 15.795660265319581 8.976984890699383
Cd 19.51168640668867 14.98224035676 11.557619249392024
Cd 14.593037309276145 17.787435574264858 11.878945926290678
Cd 17.64399862684403 14.301283113643198 9.288476112940257
Cd 13.097278752277235 11.105056621525318 8.42188813102195
Cd 12.472747793420018 14.009098273799356 8.984245992841455
Cd 14.913120921545877 10.931171583329185 12.524805815873954
Cd 17.1536091503999 17.11460862444193 10.349270787104656
Cd 9.735398606640278 16.53012201329251 12.797702228840452
Cd 15.320037503588864 12.567837934359671 9.902160517314675
Cd 15.132822156431713 14.711975873276238 12.071242232014923
Cd 12.288720197909587 10.252608529552397 11.084207022340713
Cd 12.154755797845125 16.215555681604613 11.018053601478142
Cd 17.472966755809956 16.367316190792238 13.221713149864735
Cd 12.4529018744037 13.211124882203315 11.965676319085011
Cd 12.345339340179285 9.09832339374351 13.796467255629567
Cd 10.656327840411183 13.979719025477431 14.439569834718286
Cd 10.329188143949123 11.276250997230461 13.200803306031677
Cd 17.503403231445045 12.806824052441359 12.268796588629899
Cd 16.589640249337283 14.2722244691637 15.024229823052087
Cd 15.885095785766323 18.367938458892922 14.591220119639848
Cd 13.315736193708572 15.7729968963253 14.14882838711617
Cd 13.891665427452242 12.847379816723159 14.580783390694133
Cd 14.231629142624545 10.085041234213882 15.725479917770018
Cd 11.51402414896898 11.519989271467821 16.045727624325817
Cd 10.716575373608213 16.728722019202117 15.712992852424264
Cd 12.867003326738242 18.727174795140712 14.392956227485783
Cd 17.02254718844301 11.271297901052934 14.811168191827814
Cd 15.222770812532303 17.913973180630226 17.351830661511915
Cd 17.12944414118536 13.147084839772273 17.86739247279999
Cd 14.311818786588137 14.972760120293577 16.817628566169546
Cd 11.363124319307964 14.340316010081828 17.4837972350982
Cd 12.247041629934072 18.653675359647746 17.32086871772347
Cd 16.625065220393097 15.865312980094455 18.899310733446402
Cd 16.46778820470924 10.290454574718133 17.584843794872334
Cd 13.89808530947468 12.135280842342212 18.031696217469875
Cd 13.289589018008114 16.576038491206237 19.28050189989333
Cd 15.40426316996666 13.611261132943625 20.448169537527416
Cd 12.469996719287023 13.956540848738367 20.231620896746765
