32
Energy = -12.81480119 eV
Cd 11.166685965976729 7.206324340159946 13.110800588151353
Cd 10.878779837564343 10.513914656362074 15.499510174496095
Cd 8.914491216768761 8.807143511098516 6.121018318739977
Cd 8.270724459216785 11.354143714595043 7.7662859109345
Cd 13.831976295452657 13.846844703471183 9.503939703319732
Cd 10.684851545899063 15.561405531896508 12.91097561753716
Cd 11.154016543465767 7.363164044935473 7.35333646694854
Cd 13.33098527581592 9.020416688521818 6.146230248804097
Cd 11.891404725575422 15.891364729054228 10.208868035050065
Cd 8.228817960941258 11.243102252411296 13.687984715470355
Cd 14.02203354715248 8.291291517919335 11.941188006326197
Cd 8.30784103305893 7.717326212402259 11.832622813776995
Cd 13.575454370019855 11.636428615861835 13.85555791612164
Cd 10.988259287441903 10.908783412429036 6.492921023968086
Cd 11.039394808137962 13.40720679138792 8.24500799842226
Cd 13.421394316419903 14.297664428460688 12.457456801919857
Cd 8.491380225383587 8.474373558323423 9.039620310692712
Cd 13.787003284557008 8.56292761581884 9.052230290462122
Cd 7.990437044545421 13.87614185471246 12.39823325066204
Cd 11.181041813224727 7.34045403120076 10.262831999267322
Cd 10.746795601625774 13.047441721422329 14.180535397084723
Cd 13.610313824045893 11.484969360268401 7.846433826915962
Cd 8.287414365894854 13.79322688544169 9.300263190491542
Cd 8.029984363341955 10.895021531146561 10.757927594747818
Cd 13.652747397600631 11.181386700355718 10.917032640442532
Cd 10.758356436939138 12.731297824972586 11.138986738171068
Cd 10.997334916298119 10.299319710421145 9.48274869694205
Cd 10.950624979852336 10.117110442406698 12.397109780934032
Cd 13.352817822071126 8.790874259811075 14.74839375005298
Cd 8.534376249932395 8.508310281521453 14.619362071870937
Cd 10.95124864985902 7.557164488116224 16.03156324745014
Cd 8.945213246258712 16.24765351657158 10.667224959670845
