30
Energy = -11.67713532 eV
Cd 10.974186192443204 11.586500096656092 5.995521416130231
Cd 10.038825879838935 8.726745918993329 5.926092713438209
Cd 8.035428680012954 10.780549414508071 6.912480629887349
Cd 8.44455998294591 13.613290410685805 6.288275169586297
Cd 11.243443630374824 6.761673278920937 7.812626221436188
Cd 12.624185140868052 9.480995963004016 7.674890842088822
Cd 10.775312841583736 13.95308511426836 8.059562862595737
Cd 13.388948266439124 12.523764481873554 7.575057482286825
Cd 14.897648174726125 10.608557765697434 9.342481208700375
Cd 8.416049548235291 7.805295732926034 8.390892396292482
Cd 10.25664461760764 10.749328019283018 9.213334764610812
Cd 7.912660257383343 13.04620911344795 9.366030694137772
Cd 13.258460279867807 6.0732648128867 9.855191008357505
Cd 10.510164493698825 7.902072278103041 10.516385480807235
Cd 6.947872514574289 10.113021773098584 9.534057428132478
Cd 6.244632129353903 11.407163768812424 11.981899024431431
Cd 12.443691134500344 10.202236304035452 11.199514304049089
Cd 15.156283387186999 8.11255022789892 10.858218422111241
Cd 7.57674402471875 7.885004285857919 11.486003610789867
Cd 10.594372901106887 13.456329092023799 10.953642414771352
Cd 9.412506330330542 10.546765515246351 12.029245817509086
Cd 13.448442671331463 12.985553047657973 10.549525169313563
Cd 12.771383233304217 7.43228810848831 12.615142686462214
Cd 8.229155148683637 13.673882883389222 12.641518485947595
Cd 6.8554036320477065 11.975376597959148 14.798734077406749
Cd 12.381716518419143 12.480278687963066 13.349320392584481
Cd 7.723508911614334 9.21133558732822 14.28637682564557
Cd 9.858312697727278 7.303159015437761 13.518012592176305
Cd 9.802341092280136 11.884639671271753 14.751904175618867
Cd 11.65574518871212 9.597712534195095 14.396691184610116
