37
Energy = -15.18205795 eV
Cd 11.743318581397928 13.010399369633078 7.333185091689237
Cd 9.559091706999064 14.639474184557407 8.322457711622755
Cd 14.979381378718504 8.51813196722306 7.682692296783423
Cd 11.554733814885063 9.621340533061527 7.947656458061491
Cd 14.050004476413545 11.280893931513173 7.288716046310375
Cd 14.508852938154535 14.413499293310336 7.913410623604687
Cd 8.397730444972684 8.881783093163333 9.151659913808036
Cd 7.312042605989299 13.648501776206622 10.08461357061475
Cd 9.38586901934797 11.66575530564705 8.814223415708263
Cd 10.694418500602541 6.850432787309587 8.658575458191844
Cd 12.191112412964644 15.516601766730856 9.459398108981754
Cd 14.541302448444428 8.147935667396055 12.772521579522255
Cd 9.60209680380024 15.813534805855392 11.020417941216156
Cd 6.277047528223615 10.854845719946404 10.104995862848735
Cd 12.175534950677884 12.515933443431523 10.314995948410921
Cd 14.957968131370071 6.879889032792937 10.078907612265228
Cd 13.503349276035918 9.846030045765977 10.366044258273806
Cd 15.419424653347008 12.212014536755046 9.746778792398784
Cd 9.616661181807942 12.588314715527668 11.78919209876104
Cd 9.082830492926137 6.515532610867859 11.264042394630057
Cd 12.079727256522956 6.938060753018098 11.293579141513474
Cd 7.9168067784977 9.18634226589128 12.248787535086679
Cd 7.21278326259636 15.401430856574736 12.648364112759475
Cd 14.56703376364608 14.58013472342802 11.356029001131562
Cd 6.785011462582985 12.070615635923089 12.840350988695157
Cd 14.929681548333336 11.310245801658608 12.559568131076858
Cd 12.054751435414488 11.36637631956564 13.197809685955088
Cd 11.762871149228083 14.557190955248506 12.604478105957115
Cd 10.624286486490284 9.77787103024161 11.102380350044141
Cd 8.421516165764762 14.017294340960243 14.874866679358584
Cd 11.437874810325317 8.409943380852004 13.816754249913473
Cd 9.142034249878169 10.889920910578255 14.363763130421331
Cd 14.010238518822298 9.58678557327537 15.202429054770908
Cd 14.211634446617571 13.666314066176852 14.248141969518993
Cd 13.693291256489495 12.097861805473897 16.686071450836543
Cd 11.188262287595757 13.313780795705641 15.425562542666443
Cd 11.262410510375636 10.261972934994708 16.26956542285119
