36
Energy = -12.99739475 eV
Cd 16.559198108689415 18.167979275540528 10.353674558750019
Cd 17.283625909472345 15.131006410030098 10.720949370145561
Cd 15.414299817791122 13.575641350123636 12.493389822594624
Cd 12.936157407675992 14.088570708042988 10.750163107057155
Cd 11.483565450293336 16.3399243299969 12.107134665160919
Cd 10.462170551521918 13.576252359010706 12.853504244240513
Cd 13.848151357485476 18.290517159939107 11.52289001685084
Cd 15.575079803404952 11.183902355782461 14.355798811277733
Cd 18.978192137902163 18.21861601062094 12.189467179059779
Cd 19.150148845116668 15.102352208360196 13.182338033272991
Cd 12.880193543409215 11.951831390786714 13.458547400301788
Cd 16.333629914059383 16.59719310330689 13.260065085763692
Cd 8.960897338736434 16.257138239132196 13.927424973236041
Cd 9.172617399291717 13.695265491611366 15.603773982040927
Cd 13.505170976637434 16.668218274188384 14.18371439610933
Cd 14.58971402368894 19.751181132165602 14.046352317831097
Cd 17.829180130469144 13.060877166381362 15.021708791864357
Cd 17.525251728968612 19.62825837008771 14.548752280398853
Cd 12.45959845265207 14.134145489535312 15.487286324426272
Cd 20.063487681436616 14.838840693552589 16.031379851242697
Cd 11.126769540311225 16.926572944052985 16.008228753066177
Cd 15.381207297064547 14.78341639802164 15.62351443716242
Cd 13.66758239871309 18.434463596463523 16.708669065939787
Cd 17.933253473813437 16.980375422943418 15.85531196434789
Cd 13.157269474977543 11.028146206566714 16.47655814393177
Cd 22.79362303247428 16.225719308736767 17.4285526039359
Cd 18.406234094250024 16.076456344382994 18.738005210201344
Cd 10.479836082475918 11.815682272598837 17.542958943702896
Cd 15.985256283990857 11.905912472942513 17.2299213235085
Cd 15.644171763420369 16.700230847318696 17.934409821261426
Cd 21.437797758477643 13.337223941582868 18.292684510948455
Cd 13.936184052842073 13.787409597614307 18.18342820840992
Cd 18.272617593924608 13.100966370671523 18.462164899527505
Cd 10.872451722577935 14.78130051626801 18.175627413350902
Cd 21.140405601372386 15.826842405004877 20.145531643705127
Cd 13.083513028724308 16.36007361474817 19.42462162348715
