38
Energy = -13.48089921 eV
Cd 12.019620391101972 15.530899612452897 11.429548999544057
Cd 11.713381877009935 12.596990951865067 10.181236941219726
Cd 9.209605435594323 14.22489479950172 11.004790523932407
Cd 13.422750199835725 13.573818894367932 7.652595957589131
Cd 8.98169642501495 11.379364005136454 9.798635646857315
Cd 7.506207471239552 13.345090741182467 13.477250622994907
Cd 8.037707651547086 13.941802477136818 8.119340683859665
Cd 10.109088847011952 11.709013763240568 12.574364779272566
Cd 10.83557250381325 15.187594391680191 8.510694194774107
Cd 10.580935426631122 12.309464887930156 7.312637597646668
Cd 7.754938239854657 11.050676130750594 6.857533015586586
Cd 6.067391812621586 10.117613886523236 9.370805284500516
Cd 7.284273911677172 10.48363409872388 12.230877569547918
Cd 6.351174050683938 13.008146515722578 10.633910546092215
Cd 8.407697459406545 10.799744877822324 15.132830938509608
Cd 11.277684725700372 12.07711813015336 15.534661028859443
Cd 12.898362902959358 12.98374438737325 13.01793030118936
Cd 10.376599993413272 14.622429657459433 13.879930717758501
Cd 14.606343613094284 13.918132493272983 10.569345031022483
Cd 14.269570001409411 11.070218372542731 9.32297179766444
Cd 11.444755066074478 9.844838708026195 8.97948458793964
Cd 13.146182825945463 10.754010244145471 6.421046242787996
Cd 8.655481010127227 8.570108083893363 8.535919066022844
Cd 6.9475002999923 7.635721047766209 10.984505405962302
Cd 10.276159187386213 9.476734341113405 6.019189408125498
Cd 11.17724391967331 6.931422813807178 7.6739186494538565
Cd 9.840462036076648 8.956861519401851 11.372613495764904
Cd 12.572147488071634 10.174488466130157 11.755214790127622
Cd 14.04763644184703 8.208761730083989 8.076598744217451
Cd 10.972908486455463 9.244387583336762 14.241211769565384
Cd 12.344238477492262 7.328957671765045 10.549059913052378
Cd 13.516136261539497 7.612049994129946 13.434509753125122
Cd 9.534225661529465 6.022925044728319 10.124197669506893
Cd 10.718271409273335 6.36625807958642 13.043156242210525
Cd 15.202670932175225 8.545707025316617 10.919938821120143
Cd 15.486452100464998 11.436238584743377 12.183045152484423
Cd 13.798905673231925 10.503176340516326 14.696317421398197
Cd 8.13109371325086 7.980033576898679 13.901254479395654
