37
Energy = -8.69855005 eV
Cd 16.4897306385685 21.410895530180532 19.6139984988937
Cd 4.7940990101023315 4.307883561070343 1.090343030600327
Cd 18.643228033171916 21.719642487949578 4.354862944047354
Cd 0.2903894556755046 18.7777906625241 19.219658973017516
Cd 16.731009627099677 1.017418780862263 16.71815238787466
Cd 0.3148418254580666 15.179213395958715 19.064302226645673
Cd 3.3147879897061343 14.54411369358165 19.36689863356335
Cd 14.557475821186195 3.175208110009607 17.235500293389666
Cd 21.70201452590666 16.97440453858778 17.44206949454573
Cd 15.537507638789583 20.380898585842765 22.248767144375826
Cd 2.0842810877880544 22.93936615546107 21.68401116752963
Cd 3.9922414828178394 1.3784470645740876 0.31988848019136
Cd 2.3028881473555116 17.001402152443504 20.906161202715385
Cd 14.441187776699854 17.201253458482213 21.89743551400318
Cd 17.09042952024388 19.11661478509943 3.2761966176470945
Cd 21.10579961348525 21.355533994969104 15.256720420991371
Cd 21.278648007961785 0.382542192818487 13.004597113016473
Cd 21.45524035790791 21.09063840242306 18.27150259896584
Cd 22.58335892664011 21.27732310296502 21.185580182754745
Cd 11.260199422889334 15.87926747757977 17.140094762730104
Cd 13.245562567658467 17.116826484697263 19.09328329864415
Cd 1.3801682400860567 14.237151601009524 21.83125348962566
Cd 5.1294793924602375 21.801134830271955 22.17020579740908
Cd 2.5545874737033674 19.8981001540811 21.395209920142065
Cd 13.487059466944777 13.854965085468608 18.12593497513701
Cd 14.818183822373106 0.8082646935780243 19.322164220044716
Cd 15.907615159451607 18.515284904872722 19.274566133926392
Cd 19.44958214975903 1.0610733753731731 15.45827800508206
Cd 15.93756714544265 15.547026150790751 19.879305057015237
Cd 19.70223783354903 19.03261204313342 16.70533498404152
Cd 14.76495967094167 18.53856872814746 1.405553330299308
Cd 18.94325391585666 18.783008123592655 5.884460071240618
Cd 18.56166982284328 21.729217768553887 17.42374306419364
Cd 1.2782847319961674 21.89964174641187 18.854380531976524
Cd 4.592030604496061 7.608698653808501 1.2754511148127412
Cd 18.13063101561968 0.9464032618348515 19.530935397826653
Cd 15.996839316234759 12.521838602976374 19.48229188879384
