33
Energy = -11.42028335 eV
Cd 12.543157319225347 13.592905908126555 10.849262581234413
Cd 15.530561807250619 13.610222719655875 10.807675449485346
Cd 17.619170552688768 11.637450148342497 11.938984086902604
Cd 18.92063617761438 16.628380386552347 12.050555763008871
Cd 11.535959006593538 16.209381698078577 11.83179330723648
Cd 11.79758118309433 11.86474505373894 13.25321174293402
Cd 15.936309301664975 16.259521698649344 11.87674569948353
Cd 15.52415806230092 19.904327318324917 14.100143709985886
Cd 13.752389763018476 17.751669341900215 13.13279767629401
Cd 14.790618517169243 12.183671655669043 13.365503180970634
Cd 18.38694044434413 19.129287097018832 13.58992543333053
Cd 13.325955660785745 15.042551670178598 14.29035162550475
Cd 9.48518864221241 15.25530418856396 13.795362433629942
Cd 17.500167972102073 13.02295890396053 14.618407388850976
Cd 19.59258574258774 15.034895723339183 14.455646798445027
Cd 14.886551738568883 13.296877854938499 16.215831982280562
Cd 13.38125456543996 9.836977701410476 14.795209360985432
Cd 16.49938831589902 15.947362561652383 14.766579951234888
Cd 8.918190895750861 12.319416543341182 14.00849964824528
Cd 21.331731598378756 16.933136615353117 15.947164752656738
Cd 13.04747750006281 17.901019073544933 16.15079378595466
Cd 14.051498616028391 20.689971363378433 16.67419927559815
Cd 10.718599445974139 16.176896440476128 16.432569758902712
Cd 14.567503675862472 10.442549794167828 17.439554778041423
Cd 14.552561983165152 15.884337838388456 17.705293799538445
Cd 19.162264805646814 18.929843356068453 16.47963370720081
Cd 17.389579516339015 11.608935599606763 17.27839613011552
Cd 16.218239325533393 18.32848322550048 16.72268390794062
Cd 18.40285783279644 15.989310203379333 17.16421519379937
Cd 11.391159537578952 13.258495726131331 15.914833742619901
Cd 12.638749039659201 12.58402458946606 18.462439728441186
Cd 14.563420109410666 14.045576036519325 20.13479629676184
Cd 17.364560776500767 14.026481395826783 19.077906753634984
