31
Energy = -10.9617788 eV
Cd 14.470135370422216 17.03550117161152 9.20341825349768
Cd 13.822311030979566 14.588190864329393 10.896006312499276
Cd 10.843169453078698 15.11315812441299 11.076026298568262
Cd 12.278836246897834 17.72509282838901 11.09789743978616
Cd 15.719149092334703 12.71274778254785 12.286186517113984
Cd 13.728911099302929 9.978260709765124 10.093662712888406
Cd 11.674986869562204 12.190214611877416 11.294194009696072
Cd 16.976425454912192 17.620599082350704 10.586152615410501
Cd 10.7324022351779 14.066696251040929 13.817236820468064
Cd 18.42686632441029 13.301609963643958 13.417694241386371
Cd 15.09444081939929 15.819396323438777 13.306799530837548
Cd 14.082737921192068 18.682702161636303 13.229749152654309
Cd 17.072581889147298 19.192286880254528 13.14549993545695
Cd 18.02025951264896 16.27234588410571 13.097929790211586
Cd 14.88927842957552 9.542155012841372 15.57402096123713
Cd 15.570453886168094 19.82407401115728 15.715905060983898
Cd 12.422767959954658 16.61014733019787 14.783841884203524
Cd 18.000911818816814 17.979376281258837 15.854173837894182
Cd 13.66042948618826 13.482712430479438 14.408684714452107
Cd 13.39200741364985 10.647264721182447 13.178950113935777
Cd 16.512558867741756 12.074138897976438 15.363988024133553
Cd 15.020187337256248 16.987397421600583 16.499278320781407
Cd 17.265161530548493 15.03959727512294 15.759477735734327
Cd 15.783422236025874 10.846122108559774 18.188433627450706
Cd 12.679732150060316 16.488576045587273 18.164409541161127
Cd 11.577351418694208 14.12708906805504 16.700490581471254
Cd 14.859979136755193 13.91093571135146 17.210623287187964
Cd 12.340284123413534 11.061151737775672 16.112376300565113
Cd 12.642757002390738 12.385140199683937 18.882879164269486
Cd 16.01065718859299 13.617364976319953 20.137904267768093
Cd 14.399408630813191 11.048516067556049 20.88667088240723
