31
Energy = -10.54351963 eV
Cd 11.249829901204915 13.215693216732898 9.2609024765818
Cd 12.870779543987483 14.855290587013757 11.535762181417015
Cd 17.3820610557871 14.946185159556425 18.30505814018397
Cd 11.013246008769231 7.455303146623497 15.66525799733783
Cd 8.262925817951807 13.318619501191021 9.009403787469537
Cd 10.907932488126795 15.931556036909537 16.787968949636017
Cd 11.410910417981233 10.444293175177506 10.363840753645478
Cd 10.645930202462486 12.765060285023095 12.37260938594711
Cd 13.540049264646795 11.603090509969475 12.275249290007315
Cd 8.950040468652315 16.265958198253585 9.055073537618178
Cd 16.889858653641767 12.597900919779057 14.1383915643599
Cd 14.121954063724196 14.143314955798871 8.436934893491333
Cd 15.615271156025095 13.415008579733819 10.936015272334282
Cd 11.787931514974703 13.15064708875144 15.558578910791665
Cd 8.264667316606257 14.681558646764413 11.70818159070667
Cd 17.677524437842173 11.292240838414074 11.50450849363918
Cd 15.912111009830099 9.49437137765433 13.080388108200403
Cd 10.64923464811306 18.90563546720743 9.436505637385492
Cd 13.145258379408574 8.70388903593676 13.685252736400189
Cd 13.199722711052935 14.74460984324563 18.310877852913872
Cd 10.703837682002527 10.577827687412494 14.606756668796141
Cd 14.141936608616808 11.040312265364117 15.351382008336733
Cd 15.253777166890826 13.488971644941056 16.654617252858415
Cd 12.015659131833248 16.187542986441418 8.895177874533756
Cd 10.629921094231898 16.917120166698997 11.703407094925964
Cd 14.313838679843206 14.304797883861845 13.959418737681297
Cd 17.40821278315934 11.457369019337866 17.49126434662422
Cd 14.155718138667039 11.223075411608132 9.203445523899534
Cd 9.991969954092191 15.309986757038672 14.079611609300736
Cd 10.419644614239816 8.5174470824034 12.39617732152996
Cd 18.260739061888643 9.837816501410677 15.024473977701483
