37
Energy = -14.73333894 eV
Cd 9.462340864857335 13.046343169082105 8.02208545160842
Cd 7.548174028831103 13.215233451946684 13.52184887260328
Cd 6.248391124892183 14.953480516283534 11.602723738279893
Cd 7.654028853463683 15.172971940700046 9.090275039714646
Cd 9.670294989775977 14.404233731134767 15.543996065130086
Cd 11.236579862552714 11.276985240780785 6.580101432124307
Cd 8.200985176298596 10.110365646365544 12.699386275068907
Cd 8.609567770640272 11.345169544536212 15.51682872742797
Cd 12.041295554297436 9.068421660511397 8.562276382307978
Cd 10.66064381739036 15.313150093113839 9.749028178826952
Cd 12.412194235420067 14.130691414938143 7.294976145753464
Cd 9.138683592976115 12.43058970095669 10.938204344818452
Cd 9.696783733671246 15.197791612803668 12.65441991405437
Cd 10.972636660063458 9.879989678780234 11.205625242461863
Cd 9.723325015943674 8.638475337959814 14.984814712294034
Cd 12.021413326175344 12.316904407911428 9.841961932349959
Cd 14.614192419061213 10.31325808468381 9.493341237906032
Cd 14.188086860410523 11.619262797372752 6.816744800706484
Cd 12.52097498950729 14.375824148588736 12.199832344387602
Cd 10.969294462208008 12.012585205627296 13.405865728433184
Cd 14.855924578217978 13.271922407641137 9.370265844459338
Cd 13.420052585682539 16.25964902430939 9.240459731911432
Cd 9.749814953489183 7.357359190995882 12.31398172225093
Cd 12.471135215107461 8.957545413397707 13.779571519800987
Cd 13.677626622601682 11.31606496643047 12.204640211746261
Cd 11.809410390692529 6.369684602094942 10.399058188830509
Cd 14.873851585591096 13.556952250703436 13.97745697596749
Cd 11.48653097937352 10.849061303499683 16.21357436091652
Cd 12.518488532575628 13.739937785962791 15.730695873333932
Cd 15.460759418646628 8.49017714185862 13.95273828710963
Cd 14.282570741916537 10.865999759718838 15.478702603324393
Cd 16.87039769031238 11.167932900718146 14.082540620463028
Cd 16.868128973185573 12.77233849712897 11.559483207727718
Cd 15.302486034067282 15.375219141781445 11.461093600079453
Cd 16.749197187666624 9.717284424510158 11.438185464275476
Cd 14.243817429668056 7.797248303130989 11.312111250098893
Cd 7.739933656668334 13.283909415937144 17.73111788534455
