36
Energy = -12.19832419 eV
Cd 11.072151273861172 12.646695374807694 8.225393860288296
Cd 18.276555080508498 16.30627969934065 10.455144870596744
Cd 17.44400601434182 8.311344970228552 11.631341296925768
Cd 6.601741851306101 12.937423654265123 14.393214190044922
Cd 14.018680052237714 12.380015417617969 11.191475982616062
Cd 15.185259231449498 12.138526780344165 16.484153435502304
Cd 9.332531142036913 13.863029289636629 13.282963878184177
Cd 11.119760962993556 8.535808130404032 11.637509427446085
Cd 16.272457726577933 9.109903471003058 8.8079318288278
Cd 11.149179975758345 15.638848510959448 11.490970083647415
Cd 10.009376609882091 8.64038352055705 8.65607682220053
Cd 12.314175803425337 12.737009490543224 13.940132622771845
Cd 15.33453182254015 16.565860350055146 9.570772486413498
Cd 14.418311641584618 9.088836320882852 11.25734479934454
Cd 9.555847776486965 17.221237458793762 13.624354911905085
Cd 14.139687564329064 10.309601317724958 14.029104984202297
Cd 16.341149330399837 14.258698410698209 11.628485088114589
Cd 16.47390205613454 12.35998867187545 13.846273884673291
Cd 11.32178994641751 15.413192052215447 15.261721403208215
Cd 11.313477647412432 9.53357521741602 14.44367355120085
Cd 16.927041325361717 11.33549479515861 10.860479303897728
Cd 6.978183076314153 15.963388716452469 14.341040731725405
Cd 9.092103781056991 10.702377500840091 13.033247765014806
Cd 13.03393039774992 14.751885929779354 9.308173746263126
Cd 12.375658641279479 10.262852552103112 9.409501650547638
Cd 13.966265235919616 11.866136900210137 19.197907690503293
Cd 14.458030226834369 14.78591472289953 14.743113773565183
Cd 7.795698150766314 9.15000640135556 10.578604325584799
Cd 6.121395024295011 10.396487467068404 12.824702797211286
Cd 10.92052824227063 12.287700831152021 11.269136313480637
Cd 17.0138403455641 9.340484544391968 14.468077191914123
Cd 9.922084232456848 15.397965361073146 8.724229029986681
Cd 12.335765214640755 10.620403404084476 16.927731266175588
Cd 15.297385849202456 16.82456703882504 12.67205301540339
Cd 12.592725409966683 17.5834944893072 13.459462697789355
Cd 12.474119391004919 13.733909290298916 17.323827347191408
