37
Energy = -14.97653225 eV
Cd 17.37406917603213 11.965229234561662 14.03568196552599
Cd 16.307542558451367 15.735774543440085 13.368958516226758
Cd 17.965954774417607 9.348135463233358 15.188957508819811
Cd 17.243170780256552 13.524436504154243 11.591074007792933
Cd 15.305702785846528 13.765567079888854 15.444989651303516
Cd 15.643329753353365 10.529251290381485 16.647113298670906
Cd 16.328302095975232 16.05322294922742 10.330942548868821
Cd 15.71976299051902 10.993602431355265 11.487895340265652
Cd 14.57629972512281 17.892197293951867 11.909749936278981
Cd 15.369012345899943 8.533038059159646 14.026952978779327
Cd 12.009865423332206 13.438332168765966 14.57671752268043
Cd 13.513276106245627 12.341121157071154 17.475049607068357
Cd 14.126120527021461 8.456864708668178 11.348745095065452
Cd 13.929966747392076 14.021832875911732 12.393105052217171
Cd 14.04892977347105 11.356266566854453 13.99456931149214
Cd 14.827327224423948 13.5058932497241 9.598676160763969
Cd 12.458033791205954 15.175095754053938 17.08025912019204
Cd 13.348361721438224 10.930018069457125 9.395530661412685
Cd 11.911658356579595 11.813563256154643 11.936636755879727
Cd 10.607357420933106 12.797731963888294 17.92262332186445
Cd 13.577576939857789 16.533300650478072 9.364079909435105
Cd 11.972715106985143 16.424182000374103 12.07281739532315
Cd 10.848186226771299 12.13337949376098 8.161605885193714
Cd 11.743593850319769 14.251567741460917 9.943982054394844
Cd 12.113960262960576 8.921696290295198 13.700135023308754
Cd 8.277548562611527 10.78047030212069 6.254610259525653
Cd 11.294102311884247 9.002633047618454 10.807686996672356
Cd 9.844734985843914 14.155066374896615 12.503949063813037
Cd 10.604559500453554 16.279781076139766 14.71022120708879
Cd 8.932373672899745 12.974253464606559 15.235403502118055
Cd 11.2882322607169 10.753845388534344 15.851536976224724
Cd 9.31856788199585 15.309018207529986 17.115292151628175
Cd 7.722266122697302 13.146122648079302 8.193245891583658
Cd 8.882575648100834 11.958814803098281 10.815532122494137
Cd 9.289531639202812 9.636962036346906 8.919923518130664
Cd 9.429297200406268 10.625978654929646 13.411507921523807
Cd 13.697186354019825 16.38680580547217 14.635294366017716
