34
Energy = -11.94550909 eV
Cd 14.762631909795633 13.060079345685464 10.422894482530598
Cd 16.60770006530642 15.578112849751705 10.62726680999172
Cd 19.67540852511094 15.07068571148586 9.884716820314916
Cd 12.554475889355485 14.889777182206632 11.132120389097851
Cd 16.804357715336234 11.151807377512519 11.558675549022018
Cd 14.996370750954044 17.98385584028985 9.921991818853098
Cd 10.914547801831455 12.345718955366616 11.343985769195251
Cd 18.321192213105057 13.562296293655313 12.388075963910698
Cd 12.11134564873427 17.513142597900156 9.624472027033617
Cd 14.968620441357857 14.868439974913084 13.166426724854894
Cd 12.356740562529925 10.066281062704455 12.885232117269002
Cd 14.664169003909548 11.795438625044017 13.429864249988823
Cd 19.202734156987987 16.527995004865023 12.59089733746895
Cd 17.087256806856818 18.70216804952792 11.925282970677484
Cd 12.386103521790233 17.553385651610885 12.633127818802855
Cd 8.704210679979244 13.89510227653314 12.87653169620769
Cd 12.310628355202189 13.853571248790661 14.366806565945817
Cd 15.046240726621388 17.76092991833268 13.894972694358938
Cd 10.16852281662851 11.59019509610664 14.397172374686889
Cd 10.153350389182217 16.276685960766653 14.098553381823749
Cd 14.857761568542134 13.315922515794135 16.007852058427517
Cd 17.47944015652065 15.124338010460695 14.906386067719742
Cd 18.03269382745516 18.09957417528698 14.866444005561439
Cd 15.307096079191899 9.643032529608348 15.54368600890095
Cd 11.151465461168128 15.645107167640575 16.789605374319308
Cd 13.858645864402149 16.523280382363897 16.248996695417368
Cd 10.892240486713634 12.586473108023764 17.123750477123714
Cd 15.170437798142093 15.073168340610149 18.49540477017751
Cd 17.73022799496154 13.820992026441525 17.534604390083775
Cd 13.377564104031135 10.914718456215372 17.54769683355332
Cd 9.89528771399743 14.600972267153415 19.278412585961526
Cd 16.51551828776436 11.098393108941194 17.98031367990943
Cd 12.771078224320016 13.589892276650117 19.503436977443958
Cd 14.59740848439042 11.35194064393674 20.437816545542436
