38
Energy = -8.87490489 eV
Cd 22.47130800291217 16.23227252435961 2.0992455984043965
Cd 15.745786737858102 13.707203237263993 16.91741008281069
Cd 2.7175893486787785 3.0646503908297236 3.6296349613657486
Cd 21.07982634134305 19.952067836901136 13.894489721384186
Cd 19.508425787927468 15.383996076313071 1.7400933404862515
Cd 16.99050463073536 16.573594904789488 21.286452407498796
Cd 15.593571924858557 19.923300347830523 1.8024613544840868
Cd 21.00073391317055 22.553470867321327 12.185151096764656
Cd 3.7329167501536684 2.78785705983856 20.22470043914661
Cd 0.5014393523258239 4.696030685038095 1.5578976479122442
Cd 13.979481148778088 17.575662244686992 0.3518755927268886
Cd 22.740680988162435 2.6408631362798247 4.257944726377171
Cd 23.041155126039957 3.2727348263743408 21.78651501030691
Cd 0.5223618654517422 3.3519895846887513 18.809292037822363
Cd 16.140304948811657 19.46161650287384 21.8046719638397
Cd 13.408518810712751 20.673282360889985 22.689901042631146
Cd 0.6518788370264396 1.5976776075031078 1.207516918662562
Cd 17.781220532960255 13.742679105911293 22.875797551096085
Cd 5.143464582021228 5.104343486996948 21.985642440193793
Cd 18.267314994729666 14.979724177238738 15.437979667704905
Cd 16.36462704470983 13.396922293081339 20.170919291363703
Cd 16.724018883039896 16.39950698027063 1.315436235614986
Cd 20.845274021696852 1.945746199012203 14.497635096499632
Cd 19.650306384400107 17.296495888730153 14.063165126878202
Cd 1.7195068277923935 2.226125830530955 6.663758719992852
Cd 17.628389815412287 15.790741126036787 18.368371210538633
Cd 1.1255788406924403 5.151734706801165 5.455033908601901
Cd 2.595672679882972 16.720466710803823 1.6182452508615897
Cd 18.931888571270754 14.612400798054777 12.329627236180055
Cd 14.656169185041755 14.747658165985806 22.35935443565662
Cd 0.40391259189677037 1.9365598856629656 16.15853062935471
Cd 22.50315652449316 22.333978490311065 15.189514526588944
Cd 0.46858618834893967 1.5348134789142855 13.076754805247338
Cd 3.0579971836435544 3.2993726097029232 0.23872815898379246
Cd 2.1858723172327386 5.331632400347264 20.75169881942314
Cd 15.001943448062805 17.378898044194173 3.641932282802807
Cd 3.3116450041077576 2.151141315648551 17.140294718681883
Cd 18.598470332838865 12.829463634193429 17.739188921491856
