31
Energy = -10.70706558 eV
Cd 11.939847481979644 8.932913957483013 16.0800140319566
Cd 9.440725676163147 10.307503342262551 11.492390969514798
Cd 16.251061149676218 13.758086837889438 11.626443753762054
Cd 17.378799084889067 12.003759718653244 9.545587316678523
Cd 14.336007278241926 11.44404562373472 10.87104738762752
Cd 13.973181477506197 17.989691261523088 13.015094758849736
Cd 13.751429890706898 13.450325032543102 13.400709598461662
Cd 16.363315172759343 16.053028669033313 13.535461619444954
Cd 15.54258243121433 11.210296320287352 7.289203255636447
Cd 14.589125229701747 16.792991546869832 15.807569471884472
Cd 14.022982458852281 11.401320662481838 15.903796584279764
Cd 12.598749335015954 14.550696915943016 16.0727322638509
Cd 16.602660977246803 13.054574261587964 14.623729820273603
Cd 9.029616660222901 9.46629528161297 15.545382193849543
Cd 13.7790851399811 15.667225452741405 10.946581806736676
Cd 16.615021712252123 11.622514331784718 17.28639997777022
Cd 11.86673531442488 15.875230949207065 13.328816851466268
Cd 14.871500364538543 13.847164586192063 8.682926189216209
Cd 12.133830142546365 8.866138410728714 10.860012932029203
Cd 6.579478072980193 14.386922230693349 13.872291971069439
Cd 14.699004994715105 20.00396446339179 15.381364138617272
Cd 10.783462961493495 8.119570533415928 13.391820978483626
Cd 11.56600662695875 11.868699966189086 9.443859142160731
Cd 11.997628675427016 14.7551440466814 8.5599481593771
Cd 8.649035938876496 11.935867012773345 13.848966236600806
Cd 13.306457435499414 9.69869046123871 8.340306577188235
Cd 12.65399793782459 10.671119354544947 13.318611536075911
Cd 15.350951730795847 14.319229685358875 17.49759832719331
Cd 11.01454942290468 12.02029149966138 15.80312911516827
Cd 10.76328325264616 13.350173640913185 11.942175454474734
Cd 9.629992037669753 14.65663000829101 14.766133646012923
