34
Energy = -12.47071218 eV
Cd 12.291710474893886 12.031749359749087 9.512802204385027
Cd 12.575534578924511 14.95295832239578 10.210483757163153
Cd 17.146815805004323 15.669316322067331 11.18749641128185
Cd 14.333536938392935 12.822175061179946 11.657447415965487
Cd 14.926397815854463 16.4428340880522 9.397154508781641
Cd 11.141624081138271 17.140266316389102 11.628029609527985
Cd 10.190077861375102 12.977450082061228 11.396964726070626
Cd 17.23590488809313 12.485395770915796 11.886709189275432
Cd 8.544850499154771 15.502504975255528 11.56706567461088
Cd 15.706838268732104 19.023189060582993 10.623174153534173
Cd 17.027450945134976 14.694047524789223 13.997265536578137
Cd 13.649817899237886 15.439644025073068 13.121982574032549
Cd 17.11873947514437 9.628342071787031 12.860308305661801
Cd 13.102973110003433 19.287498054708163 12.083764088466173
Cd 15.703326776647318 17.56937014472218 13.356891613497654
Cd 10.599618752348784 14.926972021203303 13.816785150643224
Cd 11.812154532801442 12.10198015312719 13.880909632847427
Cd 13.024026101456894 18.299854922037376 14.918632031691123
Cd 14.69151665267324 12.997713522073418 14.977793960042913
Cd 14.247833328640487 10.388555989434293 13.4682640131759
Cd 13.772217444592298 7.990496392739719 15.204985875459649
Cd 16.145509623860406 9.89523933045634 15.91232050001031
Cd 10.293610010807107 17.327253085119306 15.6557302341296
Cd 11.362373664276758 9.806107867170752 15.835227373667305
Cd 17.396349538432343 16.91122529953747 15.936608466753468
Cd 18.1696907903005 11.873018531128357 14.74003066038305
Cd 15.198105399159147 18.673987197411417 16.910117369962535
Cd 12.615418609278237 15.272284369653477 16.042987261020244
Cd 13.542619178911776 9.213369889140907 17.9255863492534
Cd 17.391568549923594 13.774352507578628 16.966740830734647
Cd 14.9898381736656 15.721604715322854 17.728573640765283
Cd 12.132653988901893 12.513976521120512 17.022713279989315
Cd 14.940600537860387 11.872548634671354 17.857210149292396
Cd 16.015555252383898 13.809577419349091 19.748102999350518
