34
Energy = -11.41726451 eV
Cd 18.539563958062416 13.523061344321249 12.782814411931591
Cd 13.224698179111385 16.677996742195262 12.032793149733708
Cd 13.454982511851979 11.707634902522406 12.026048794579932
Cd 18.434566578948914 16.434974152997654 12.413298107313782
Cd 16.44358204664395 12.999891406846567 14.707055268645941
Cd 13.687460300872717 14.232847557609704 13.720726675658689
Cd 21.267052129036593 17.828245151949623 12.294237494936542
Cd 20.81780372980621 14.770249844193545 14.251586879785384
Cd 10.816161071000469 12.439958943557903 13.385989187868805
Cd 14.033962057951733 18.437119981783265 14.415008018651207
Cd 16.86312918598116 18.60150225424283 13.719584017046413
Cd 23.529851241669988 15.698963358951367 13.220535949634888
Cd 11.66129164214568 16.631857289809552 14.714371115452952
Cd 9.344397225666405 14.93840486638468 13.957708597308306
Cd 21.007375412824732 20.543858430287745 13.95881041687795
Cd 21.35138061054078 18.37423243688438 18.12970062507481
Cd 14.990382996491435 10.353845196305812 14.247524472561317
Cd 22.311329411833377 17.852829103887615 15.214868048556717
Cd 16.141939304635482 15.952843799210152 14.873482466314803
Cd 19.122231939818477 18.5662291260364 15.640107157140488
Cd 10.388199144798818 14.435997672177642 16.87224652955764
Cd 15.191722505443073 11.76899268074222 17.134125916035945
Cd 10.552628971841317 17.397909873297877 17.432141679851924
Cd 13.268621691845624 18.854799172118334 17.208359799490704
Cd 12.513678814077299 12.281922091304335 15.89508347928655
Cd 13.636838630122234 15.106881841650122 16.615106025905515
Cd 19.802231671605156 15.933811428592033 16.857860040389493
Cd 17.231710980111167 14.669744934128369 17.323061824379923
Cd 11.053313344384001 11.816954088246858 18.475403582107678
Cd 15.356098394445665 13.717311198359473 19.356115347606572
Cd 12.538253318852231 17.19581926269842 19.82219555102126
Cd 15.37950318533083 16.874440089784457 18.421396409516834
Cd 14.248639397540698 19.7852666193207 19.99813251118298
Cd 12.456347382191074 14.25453212508521 19.543449416075816
