39
Energy = -13.89954833 eV
Cd 14.409962869041847 17.628604976927406 9.62553549742585
Cd 16.34447149473502 15.347127947995755 10.069439799649535
Cd 15.122082117439213 13.782872970351512 12.333515093054936
Cd 14.569494543183554 10.915932148872132 11.367006510485915
Cd 11.704987898115055 10.261314271440476 11.152895041507549
Cd 17.720662413112017 15.434294860520819 12.695366418390481
Cd 11.371550495250204 13.06258080083159 10.53358759197327
Cd 16.412834562450257 18.10198375985117 11.857681458787079
Cd 13.369918975626756 18.207054517099685 12.46678430467512
Cd 12.918201181218034 15.442016155794459 10.993533296695256
Cd 12.806047971517723 12.402701379820108 14.01435374961414
Cd 20.504917885744344 14.030056451452007 12.740524397742796
Cd 15.730162265078071 11.355089425623094 14.128609558224863
Cd 19.980750491222718 16.445202608638812 14.650445576998695
Cd 18.139923229923912 18.94180721612587 14.138598178307276
Cd 11.085165999962225 9.596740427592309 13.922618295495054
Cd 18.08273470292463 13.111622432477256 14.57471996767569
Cd 9.997868407719865 13.604012702618974 13.159877743990378
Cd 15.713925476174282 16.88141354722081 14.549545583507376
Cd 13.038457696448 15.578811603992905 14.044083329777044
Cd 9.522206973454974 11.51839045446642 15.503194935268613
Cd 12.121162215422594 19.749953662137337 14.659239261082213
Cd 16.11273470397384 8.9019383759991 15.865749634587742
Cd 15.40804109624241 14.133667568166011 15.931456595990412
Cd 11.074070213606683 14.301145215418922 15.952891226604565
Cd 13.989569783830646 18.499247027048426 16.77299053601852
Cd 19.46974228487378 18.587758993265773 16.797902636536516
Cd 11.286641046459378 17.19525425644973 16.31982218584927
Cd 20.155358300719286 12.948985038471681 16.74775845513211
Cd 13.292282704666558 9.862492738515137 15.850249640194493
Cd 18.021718060621048 10.936702565904682 16.879927098972807
Cd 16.66933082256509 17.57902778528326 17.370153447782254
Cd 19.088038656838872 15.534384823716156 17.60760464527132
Cd 13.244546792238342 12.42104293526882 17.328239020119312
Cd 11.413064009115512 20.2853189772806 17.83165272161536
Cd 10.438802062054496 12.431890802158472 18.283644553449033
Cd 9.136341917861978 19.498592905190236 15.735287671767015
Cd 15.920830686656284 12.258617527960226 18.444963431465116
Cd 16.43076959839974 15.043720748540286 18.91792351480459
