39
Energy = -16.20288342 eV
Cd 13.590231922170625 14.75179197209221 8.971291938585717
Cd 14.264588832222438 11.726270228242118 8.545610428935012
Cd 16.440839331052295 13.888231005587217 9.07567196468234
Cd 12.217974402718772 12.155560268551447 10.575714799579105
Cd 9.453463360925744 12.907229347786119 10.710333769348496
Cd 11.16735790804422 15.42742273932538 10.332039797566166
Cd 16.59714101174294 11.051525762489876 10.148637719193783
Cd 13.266306760336837 16.929242489267885 11.867686681306406
Cd 16.792004216455524 16.035710707753886 11.035987855364775
Cd 8.610801440644877 12.760041852787369 13.504372893599099
Cd 14.405157044754814 10.913377027336008 12.346399086863766
Cd 14.51752754042087 13.941873421882121 11.932525870446671
Cd 8.911175979480172 15.557247988685187 12.28111890192034
Cd 17.674076360075503 13.286702169747054 12.008891680545643
Cd 15.899477134085688 18.148129730247142 12.756541724067345
Cd 11.865381316294311 14.376612468539934 13.260764357872134
Cd 16.355067399221205 9.342475760003719 15.358074920024213
Cd 17.576095792434423 10.179889324880554 12.716445557213738
Cd 18.465278276031125 14.080007836175504 14.72198693112982
Cd 9.358460929636966 15.084036153918602 15.29542840410581
Cd 15.875160390520897 19.333858846513643 15.487976243027655
Cd 17.335141292434724 16.695880187096392 14.986822870281415
Cd 9.778224642265771 12.173926187430352 16.130136217742884
Cd 13.192210781312877 18.49287226622847 14.53616755941164
Cd 15.553028535612269 12.690245115737351 14.54745595159473
Cd 18.874216306964033 11.19879119923777 15.136830692552625
Cd 12.819431129439856 13.162235914451895 15.807447332332927
Cd 11.43076413935841 11.443901753037837 13.458502302852136
Cd 10.633021095117831 17.42487725581423 13.721953727411691
Cd 14.399957062617796 15.491852146200463 14.54972055666016
Cd 10.864896859055166 13.553784285949357 18.461014416149265
Cd 13.443283487839722 10.212038702721754 15.197522240956488
Cd 14.554971341922617 17.30561406682045 17.2117390838384
Cd 14.598765132837432 9.895043733546665 17.87900713317672
Cd 16.9113216640701 11.913199563456729 17.252888471480347
Cd 13.038754094169262 15.474909967223915 19.050042061297273
Cd 11.777525840986705 16.266465129763837 16.453169471020896
Cd 16.11552335974423 14.80037515784761 17.11987088196507
Cd 14.249863510687522 12.801217891328669 18.44067512960325
