35
Energy = -13.04078171 eV
Cd 10.684427187037972 14.756236587451832 12.225001250086187
Cd 13.245229695519152 10.265053904185905 9.32246869518266
Cd 13.179801546271037 16.427654983440153 11.720117497627983
Cd 9.042224229111904 16.615787923895237 9.959880933737963
Cd 16.49447627223832 11.282333626495017 12.084618252758998
Cd 10.613424509051757 11.687933006210537 12.244086902465163
Cd 10.312926972625744 10.350101390974693 9.475471427228385
Cd 14.957095155452436 13.51292443755214 15.04791729867385
Cd 15.448871587628608 14.671390441567135 12.403675014414581
Cd 9.106879099870303 13.935113934557762 14.737010817197334
Cd 8.347748941110133 8.150023690090556 9.83646251971882
Cd 13.538068579316242 12.433273574740598 11.569514815527224
Cd 11.278977424388886 7.848008641854779 11.030329668734145
Cd 15.99573277109914 8.861196742378946 9.788112338052299
Cd 9.364592758069724 13.138947901943716 9.72415418003681
Cd 13.72378023886156 6.88341961624105 9.574308065049086
Cd 15.704424283363657 11.256587395372593 7.66956810653985
Cd 9.840074438608482 7.2988854844688245 15.461007957132967
Cd 8.861264987318958 10.533479275626561 14.520164946374248
Cd 11.616441436893794 9.129870573447239 13.788946953117877
Cd 6.615161883796436 12.501768013451763 13.944183243176104
Cd 16.19499581302664 13.463077028376988 9.848379789106083
Cd 14.051754237630641 10.569757114828061 14.910333695069871
Cd 18.079005020915076 10.987077070704155 9.52707044198507
Cd 13.214628617943928 15.887459851122914 15.541785823283572
Cd 11.256085558518368 17.369791088200003 13.928863303707153
Cd 7.603834073991864 14.448152845681975 11.831745375194448
Cd 11.748820010601392 15.248533086343283 9.266759876535795
Cd 9.151067076659778 16.64313586042673 16.13412958750374
Cd 7.681953742966016 10.981309764462338 11.47771984009577
Cd 12.030323309830761 13.0350075922231 14.472845647251212
Cd 14.179736741959639 9.362315188531658 12.119428562106418
Cd 8.58896908650533 8.095635558300588 12.769695609291363
Cd 17.11093032665088 11.47593869980236 14.981052070636453
Cd 13.455543387908167 13.081640514148003 8.53674302504711
