47
Energy = -20.5401593 eV
Cd 17.597379984628603 10.676007014710972 10.241490323220543
Cd 14.71928413417125 14.38641377774514 11.10242693246033
Cd 17.527198739402596 13.713759066488633 10.400251584987357
Cd 14.848906808604927 11.285175741842764 10.996063831668089
Cd 11.92405950399596 15.376269639867088 10.805277776062459
Cd 19.70695177409831 15.00006853388953 12.006046762181363
Cd 14.00371118379514 17.415894941976326 11.449275601302828
Cd 10.575626897954704 18.025548164393822 10.503673187413936
Cd 12.285218454324427 12.412488146117486 11.719740842831074
Cd 14.654368468979955 20.102336693103886 12.62538740365368
Cd 16.739542157575187 9.921500258677197 13.085236780639928
Cd 16.419589490132747 13.180923384923991 13.56414718239031
Cd 16.76877186601904 16.20497414392338 12.388650532496422
Cd 19.056768573290604 12.126391275670777 12.546861450529871
Cd 14.788148422488952 17.558465524180935 14.562182126515491
Cd 10.142977884304239 14.095807513052899 12.797686217930195
Cd 16.09871041914351 10.045187896180384 16.199797544451876
Cd 18.975756654076207 10.385475705886856 14.952101812091577
Cd 17.334268732489598 19.255270376636872 13.24642987362
Cd 11.717643257206673 19.88515265023265 12.440909815263243
Cd 13.705117238516792 14.503186418417426 13.986173372268569
Cd 11.77952471815252 16.883980025594624 13.550200432884996
Cd 11.557763899646725 12.177037520648721 14.875418610034874
Cd 12.760026956539635 19.710867796557505 15.263997294370856
Cd 10.565027328195736 14.95881261004081 15.530133405022502
Cd 17.958956679457845 12.32195676605158 16.894674927074814
Cd 16.750898214443946 15.51936516512689 15.386555716612923
Cd 17.591682764615367 18.66494518808981 16.15553084114889
Cd 12.149650236839543 18.22414180900526 17.946614316163203
Cd 13.44351188726401 15.80342602495959 16.629298210989838
Cd 19.43476830640032 14.046055456287869 14.953456408520662
Cd 14.206206387637732 11.206648043549384 14.046219810234264
Cd 19.227578566388697 17.085256248265303 14.05026385173661
Cd 14.970503062892861 18.94772102389986 17.39979415343258
Cd 10.185341555681433 18.084645239967912 15.731345550577112
Cd 9.90615985636787 16.185012179216585 18.114416089183784
Cd 15.103596745546996 13.28332572462587 16.39968126819534
Cd 19.300124495509465 14.593369264173313 18.366840730259923
Cd 19.879433496382497 16.966861210162865 16.978100237411265
Cd 14.173148118078572 17.04100266929643 19.735853534565404
Cd 11.874989576309279 13.337286542594212 17.736268432435725
Cd 11.800711912728804 15.249925650749327 20.101653490731767
Cd 15.221257710846105 10.928602568997286 19.04667753627894
Cd 13.157550438542884 10.695705197345491 16.97284839638458
Cd 16.61193098398565 16.23875301267977 18.253398891985675
Cd 14.421824687655112 14.004915938663055 19.402293321278805
Cd 17.155452720662733 13.061706207502933 19.636275540476795
