41
Energy = -17.43397152 eV
Cd 13.617638481821208 13.925358888758662 11.424003818818882
Cd 19.114132984115905 15.09597498952947 12.579796324080855
Cd 17.08122353459382 13.191406211147157 11.533474880594577
Cd 13.358616941806055 16.824490702806816 12.139950919441835
Cd 15.566188034154578 19.17152816999072 12.79152990836156
Cd 18.404321176629562 18.340336410549227 12.714484355466588
Cd 14.832230194984842 11.297999541033375 11.265257334070965
Cd 10.699718242176454 14.966902992181025 11.391596945278103
Cd 16.223834308049387 16.04785283737371 12.174138956528541
Cd 11.138181209712041 12.24824624604432 12.703194968597565
Cd 19.079700228704045 12.313618241904022 13.792062932157878
Cd 16.58614464384502 10.807416883028996 13.606539586147425
Cd 12.579850570567888 19.442534293445608 13.295144795636043
Cd 19.778335005708406 19.2754048264447 15.29554527013485
Cd 15.7447740901581 13.85016927410177 14.303412903534015
Cd 9.415913201350843 14.212211103626613 14.127914864141813
Cd 13.616658394852141 11.69904227630838 14.137820440777386
Cd 12.842410760106421 14.700512021707759 14.72885914353103
Cd 10.751483330885208 16.995602052575165 13.629464413200306
Cd 17.575877974435382 16.04135573101666 15.177690597726738
Cd 10.282452278656713 15.516190401469158 16.58036424036123
Cd 15.541951276224397 10.608907605382019 16.323720425511805
Cd 20.212791075276275 16.928027168708695 17.079914723031276
Cd 14.258674887751138 20.287447478866806 15.548497411360403
Cd 20.959186121486617 16.96377159823805 13.91785671808553
Cd 16.965629198762702 19.06127654535765 15.898881532127152
Cd 15.519999744046196 14.909104477612853 17.113035083011873
Cd 20.254489518491713 14.340971344244664 15.552791924791022
Cd 11.968453696626051 18.177611405546266 16.032086035028765
Cd 13.25631134881556 12.774264097011075 17.029152449453907
Cd 19.356401491579874 14.41860219220025 18.514134995452732
Cd 14.730711340291643 17.015016262537483 14.997968006251376
Cd 11.033844549647473 13.802399958260963 18.931920899960662
Cd 14.740566769299383 18.466060117908185 17.903439423330987
Cd 15.668456701072017 12.23945877857355 18.757207404010998
Cd 12.82797756227474 16.115524765734563 18.004175765027934
Cd 17.06687246309472 14.381736235315158 20.305175132168774
Cd 17.46107173641701 17.05014043613699 18.275861550368788
Cd 17.750550151226715 12.8209351519482 16.496218397770278
Cd 14.969089239880912 16.46573381503308 20.081741138760155
Cd 13.718455127833352 13.760026057751531 20.3951429733189
