43
Energy = -17.82985362 eV
Cd 14.524873155404071 16.83073436875789 10.06028504591514
Cd 15.12474057890044 11.632613999581686 10.923189229895703
Cd 16.478969696614467 14.129745952984367 10.19288112620687
Cd 13.342534635946828 14.11796347043539 10.276721787428594
Cd 13.79647039564281 18.49501165654969 12.817196452476383
Cd 10.491293414230174 10.972356674999597 12.192275755819947
Cd 17.58177471771822 16.828204057946962 10.579583489023758
Cd 10.729234605512845 13.852655563843737 11.793509262415949
Cd 15.996539733128307 19.246582234752083 11.115982324787158
Cd 15.476236268275025 9.84753066703035 13.617014383976892
Cd 13.570833522757523 13.041971657733418 13.18577625926457
Cd 13.092143459509924 9.651330266714163 11.778280925718585
Cd 11.838789187114262 16.582555575617434 11.548414051959286
Cd 15.07384352843272 15.583391437951096 12.883327664923339
Cd 11.170638299041254 18.246717327441118 14.177444082832572
Cd 18.46935438529388 14.900498453920711 12.611985757797832
Cd 16.60093891084505 12.83823192457055 13.54335906382772
Cd 12.172034100817212 15.355287445532232 14.434108312345737
Cd 14.57937333163957 17.258309273936355 15.356896990083078
Cd 12.448612526070352 10.671970961901676 14.607814866786724
Cd 17.148673070295672 17.810766823126453 13.52915943592501
Cd 19.546572236756237 17.863443313425098 15.563210820515842
Cd 17.531592905073197 10.86067801352178 15.593231101189247
Cd 20.714283827007275 15.210000723389408 14.721499132467581
Cd 17.026871454336877 19.397801487386115 16.105443443450792
Cd 14.724014700731123 13.948257440535327 15.764364971701356
Cd 11.948533879716408 12.47635726817538 16.953480962824734
Cd 14.37598453418654 19.33321639927494 17.554560552864164
Cd 15.514367286343045 15.930175462309274 17.89300801164206
Cd 19.042959315404016 13.19199737187375 16.3435182043582
Cd 19.27825453808853 16.119873731926806 17.96731608164441
Cd 10.055048764476217 12.856392196159709 14.64119744797942
Cd 14.73056978745115 10.939761964017018 16.52420014586392
Cd 17.25360291359379 15.461311035292459 15.475873452428672
Cd 16.943293869918975 18.456041668929355 18.924318310248335
Cd 12.311505058619506 15.339408642410962 17.47560717139579
Cd 11.528637047203205 18.209555455016687 17.062181058330204
Cd 14.482139543395391 12.871150525733514 18.72613283664879
Cd 17.491133450567826 13.558261303363025 18.844565708114896
Cd 17.928525097824778 16.15754124125844 20.590917567979833
Cd 13.139547817715822 17.34142685374827 19.556892311148722
Cd 15.376890861588507 17.635582994625583 21.43423883463908
Cd 15.135816450049854 14.73538197553851 20.847082466390823
