48
Energy = -19.78134929 eV
Cd 16.14457043752495 19.99152752559979 10.012369391716542
Cd 14.684441992031784 21.55548035421524 12.037904757310475
Cd 13.958961306518708 18.539761958063554 11.659107918087816
Cd 18.245543904292653 21.32469305684025 11.856386747200892
Cd 17.52818011889523 18.398421040799818 12.314319833114427
Cd 13.330194772211932 14.894500544137372 14.152784875205615
Cd 15.502318671415559 16.152701435313332 12.537442255737654
Cd 20.685376015005424 17.99340550102662 12.566756896333343
Cd 11.774460959035785 17.498909683461978 13.586709566632639
Cd 12.990637487655183 20.070883404270546 14.34825492471356
Cd 13.872221104008135 23.114822693759287 14.358838326904863
Cd 19.280540620415934 19.208239185750823 14.916747800809127
Cd 20.880245386173975 16.03103435458369 14.80570443744027
Cd 16.147797284254466 20.004150965402054 14.434655551494407
Cd 14.407640213274007 12.261682957879067 14.925326246799157
Cd 17.691346520023544 16.773335403952327 15.788215540183707
Cd 18.617184392254273 15.6188572644671 12.886340442261892
Cd 16.663039816300913 14.06874989172775 14.345010011802113
Cd 16.97632506897763 23.063039989764594 13.905896749548871
Cd 13.060759931087992 21.80204723795819 16.908565751884556
Cd 12.057575848158942 16.394529275478025 16.500737691266544
Cd 14.786696957796863 17.548428325995577 15.356392752751617
Cd 18.66766802938838 19.201149331403986 17.92455797583579
Cd 17.1779617104193 11.443895355522162 15.686722664371686
Cd 16.933124408120754 9.345624580499635 17.890842320568918
Cd 19.215823055446446 14.110456384141743 16.44910197064213
Cd 15.361269679054667 15.110924871370333 16.901415765766025
Cd 14.647553569511903 11.435853312849517 17.757356735010422
Cd 12.988454447602582 18.95860194926617 17.67572709846104
Cd 19.51339935516207 11.296996597649263 17.476671012119834
Cd 16.98210452405339 13.309791273293358 18.510173068092655
Cd 18.20897695389743 21.68950333864314 16.27790361020866
Cd 15.718013171930949 23.347282897764977 16.74899131738722
Cd 12.55029748858132 13.528059692477976 16.903154229633618
Cd 16.15690726397335 17.689942898488564 18.442119940973715
Cd 15.740302235620716 20.361177090762183 17.42015331940269
Cd 15.28815832106198 7.1560990196880025 19.49198289819809
Cd 18.636951284261265 16.032076980404867 19.020071962883392
Cd 21.735013905707547 15.155284922786228 18.754988436603572
Cd 20.979682738831787 17.588829304056514 17.245449519558765
Cd 15.276881154546786 10.175264161177905 20.405793446955546
Cd 13.415734731619798 16.58444705370151 19.292224674686235
Cd 18.284215415429657 10.7127702718824 20.241946638444162
Cd 13.848711171783854 13.660582188573585 19.634094802561503
Cd 16.029902933572 15.596404307254412 20.558176493017843
Cd 17.468918170014838 13.246493984555805 21.683075861205726
Cd 19.93828896230763 13.211110316411897 19.808950135268933
Cd 14.617704129199472 12.410253483342604 22.261963251357443
