40
Energy = -16.42475647 eV
Cd 16.61236860412822 16.596487333856107 8.001378459379017
Cd 15.187271167943011 14.197863979918578 9.234959344343567
Cd 12.488975374864122 14.725008139186691 10.50781907612376
Cd 17.058429612068267 12.797764528867908 11.018623369746589
Cd 14.301620543968655 17.237086707318518 10.281875147491546
Cd 13.843932394901511 12.301573289430642 11.428275414208905
Cd 17.019297489110638 16.08973924640717 10.985223568707413
Cd 18.21377879878421 14.05871491509036 13.44728338582254
Cd 15.232891447132328 14.80269423885685 13.308619108580219
Cd 11.956872982582123 16.925145548363783 12.28881638888901
Cd 14.862360405963324 17.972521711263568 13.29107779647782
Cd 16.25450334553099 10.916331090211463 13.148959660887265
Cd 13.512861740107182 11.412333170530157 14.202278178141311
Cd 17.840564534320322 17.399063064736147 13.433103020077088
Cd 10.597917673044426 16.55483055575576 14.91463786119506
Cd 19.871456648229195 13.530961776195811 15.853851116761332
Cd 12.308958613711036 14.211093613080573 13.909311484437673
Cd 16.80116582509166 19.086727857568356 15.633423119108073
Cd 20.29329262776884 16.17794782127077 14.55224005800368
Cd 14.00457917246841 16.23169003063667 15.602471872663132
Cd 16.98551895880748 15.885663800062174 15.929494893830274
Cd 12.080488433355965 19.10797246325113 14.280525484561123
Cd 16.171279423572148 12.808182846582254 15.516825260073766
Cd 13.222038523138307 12.54086826083999 16.93285518875579
Cd 11.623807873274599 15.06615580179139 17.252876338128804
Cd 19.822957010887436 18.66653064407049 16.08836411534812
Cd 12.00971673834857 18.06675429356111 17.192989422155303
Cd 17.791947355476967 18.294523682140916 18.399036110848957
Cd 15.116196018409696 14.704970036339834 17.921325678569364
Cd 17.998611912469382 13.569702925306677 18.102735032928216
Cd 14.110494610608697 19.997027539484467 16.15383091212972
Cd 19.628719278872925 16.040566310169034 17.694904182987216
Cd 16.261170409533648 11.14062495470822 18.048786795080428
Cd 17.847887352273812 15.833623993502597 20.242233555202873
Cd 12.646819557056341 13.967085133284035 19.871048458604353
Cd 12.353675676937344 16.98894244680882 19.915115696193663
Cd 14.951739443340497 17.759068257569105 18.153796519099984
Cd 13.982773705592178 11.376206479478771 19.879786620686616
Cd 14.93957987805543 15.896800664619729 20.81035961454204
Cd 16.309255351884065 13.180927361496972 20.68665920284185
