46
Energy = -19.81848368 eV
Cd 11.874104064018468 13.336900163898564 6.719823436992128
Cd 11.478640662543958 10.45456537187843 6.771730925878098
Cd 9.14159102549134 14.129529035956837 7.442362113670766
Cd 13.920140670415257 8.77477925880302 8.197117676437566
Cd 9.15560538702399 8.906093617935639 7.607718169680149
Cd 11.467300643397467 7.048688286963325 7.719781579217009
Cd 13.320688797574052 15.322884072260974 8.344437989408249
Cd 15.765434198167334 13.65778078790672 8.763404347783855
Cd 13.675186735231412 11.615627505935848 8.54246713734504
Cd 8.981909924541977 15.92100154028942 11.036564362925896
Cd 7.923401203033257 11.453502053796717 8.063907178911837
Cd 16.370114909385727 10.989953137516947 10.013041079773831
Cd 9.812661278820649 7.2776989371532865 10.24933337919381
Cd 15.790154350058941 8.205019800390078 10.615891761045745
Cd 11.386179864691986 10.035993598031627 10.01737685393153
Cd 7.228975371230781 13.797880320048902 9.79198372878954
Cd 11.06516156292786 13.940265190553648 9.810238337443437
Cd 7.401256925447632 9.049814816720012 10.102768813930568
Cd 14.710332909725789 15.747193466861967 10.922062383794374
Cd 13.573268440647627 10.041615754893405 11.895666500964937
Cd 12.997429750384894 6.9816629893117605 10.452691444897642
Cd 13.388653640054189 12.954325904876432 11.314565556897412
Cd 11.869576417040696 16.75862942945147 10.783960906634812
Cd 9.265662259459994 11.76104193446058 10.91649352675972
Cd 16.592800340997552 13.644738432651401 11.634145313320387
Cd 14.438065870874075 7.348431231435953 13.129814377546538
Cd 8.43638979020528 7.863340329547885 12.823267894011972
Cd 10.820206142930752 13.515351459126093 12.848922751154616
Cd 10.354933035874184 17.205412291135943 13.395884539866344
Cd 7.368616578566452 13.946042354253667 12.816361683442326
Cd 13.259189634835147 16.072106203437013 13.500803741985019
Cd 11.227043258856515 6.809456062960149 12.861507900334427
Cd 6.327244281085819 11.314920664694096 11.660523549521278
Cd 13.060941686213663 11.937432333014023 14.25838001460875
Cd 10.757672168311698 10.330120065779886 13.077348450797789
Cd 16.184498196806143 11.166869028188362 13.19537512764083
Cd 9.863385048259559 9.90548896997842 16.004282549461053
Cd 15.466141675365703 13.89320982030375 14.407109372247172
Cd 15.04390829577293 9.360049229339994 15.186784089322042
Cd 10.168061739529536 15.218091396278881 15.498597829661733
Cd 13.13833127083053 14.560894582590562 16.057502963335402
Cd 7.357785746432466 10.15869131693829 14.180056185439215
Cd 8.714189536270899 12.604802807256878 14.979711626694495
Cd 12.190944643504617 8.319971236918757 15.091019398225724
Cd 13.09064799688146 10.525514856925593 17.03109537120006
Cd 11.042474034605023 12.603520315675262 16.733018042203337
