49
Energy = -20.95882548 eV
Cd 16.10467917007038 17.27568240387222 10.155716401764849
Cd 17.345796318986043 15.128530388443709 8.693017847639357
Cd 18.086344003440466 10.224146127709822 9.272060750155502
Cd 13.505070517199291 17.81854880615681 11.434483126965587
Cd 12.064045984615452 12.575936067274535 11.454090725716773
Cd 14.869136670645224 11.827253692140882 11.605151020814752
Cd 17.30126698835268 12.816450491892398 10.452303730294078
Cd 11.711700833856726 15.611441380675641 11.865532489091537
Cd 15.27676320114749 14.931646488904518 12.045956186347787
Cd 18.560037746248135 17.312823508144124 11.992658692943174
Cd 18.34776788434221 11.595969551325581 13.354821301350588
Cd 10.549383072271306 10.946025095545936 13.731259614895349
Cd 17.27232739447553 8.021245048110197 11.164789835968008
Cd 13.009096158296868 13.993017071960812 14.18335427001203
Cd 16.1296662711744 18.829261750587424 12.717403241247588
Cd 18.788963060180397 19.07361256291199 14.434890403462154
Cd 18.58089620666566 14.475974737467554 12.434039255596149
Cd 9.776109954877496 15.909812873556785 14.730710577721627
Cd 16.14554166363705 9.566601800150522 13.378993002153383
Cd 15.846364816523693 13.03187418472792 14.521925356319503
Cd 13.38189832961579 10.465477309599951 13.789357581359303
Cd 9.674149807538349 13.668713004471702 12.907866730333712
Cd 13.744996364069292 20.349045893030464 13.403364745719236
Cd 11.606470583120313 18.07794653383418 13.745670437801701
Cd 14.29179982826387 16.709412695658404 14.490163090411434
Cd 12.893891206333757 19.71919874479842 16.143063130070498
Cd 20.304069909588335 16.511494910560476 14.432131688047033
Cd 17.118475473969838 15.757126468289236 14.686759394698722
Cd 20.36088482251126 13.524033200631173 14.628285587107404
Cd 16.055949475029518 19.052102974612104 15.666755895854443
Cd 19.778936036811125 15.239610356795517 17.05765807209644
Cd 10.091432104987366 18.390922253041055 16.346124805449627
Cd 18.17661087357612 12.527525682645372 16.41210566115837
Cd 13.560585061270865 11.86808407642574 16.37924686662603
Cd 16.658127349540322 9.775706341619435 16.167952173901504
Cd 8.85554237797675 13.792369407545879 18.264859432620113
Cd 15.013073721128048 14.708579853618811 16.865139200160847
Cd 11.714495971279911 18.75520489972015 18.849426744436812
Cd 12.228153900778345 15.835052421964056 16.54285316999678
Cd 15.941740442949321 11.678065373827202 18.23100467707894
Cd 17.54707935095078 14.23034242613675 18.823248958404726
Cd 9.655135703781788 16.53843761423164 18.66322639140257
Cd 10.446998653420959 13.07766385389171 15.883064753312809
Cd 17.354626892128554 17.033134941799354 17.43892250636533
Cd 14.416247303367907 17.755464784932688 17.77961469717687
Cd 12.083921088938057 13.381230857796938 18.422381507263953
Cd 14.635045697025058 13.582194738944438 19.99162032870378
Cd 12.708684765705899 16.0237467462069 19.68840176080599
Cd 15.732800216406028 16.30903883088236 19.979353410245253
