42
Energy = -16.9003534 eV
Cd 14.652210545184317 13.00693821622905 8.10581315722908
Cd 13.835311107422045 11.071768055659073 10.212371093634136
Cd 14.899602934584495 15.722088228362761 9.356720586839916
Cd 12.650968676525292 16.546497902313316 10.94669977417603
Cd 12.209568143122587 13.560602023695534 10.981008832555242
Cd 16.05377155767923 13.129758850827134 10.922262282451946
Cd 15.758851857981453 10.633853669283857 12.690868592221761
Cd 12.50176080794585 19.280751492551477 11.913264874992793
Cd 16.81868286472011 16.053453823353415 11.655269714739054
Cd 14.081721911147852 20.67993741332198 14.112892392051759
Cd 18.14874197351657 12.478745152060073 12.950574414262373
Cd 14.278467224269267 14.487878255867678 13.04014453604744
Cd 16.660604892190072 19.465602047065953 14.901272751028726
Cd 11.696418077508401 13.278590362560829 14.119265270992308
Cd 12.025228439070867 16.531231363359204 13.916847405123313
Cd 12.696621311820836 10.714236326027589 12.904266247581662
Cd 15.251093873597137 9.172117667335563 15.333981394753698
Cd 14.85838878106344 17.612726599120116 13.211027404205256
Cd 11.180794303919907 19.788663803907745 14.516658955678123
Cd 21.139444910984707 11.98981895630345 16.01204602268413
Cd 15.273400730105855 12.560395865768948 15.066974803519885
Cd 19.02706039019458 15.282684467938049 13.402473753200631
Cd 13.641089030676877 14.795249292249716 16.294339853389193
Cd 18.90263190185736 17.646413968630576 15.327907176965388
Cd 20.764119951451924 15.180196740370294 15.816732962589768
Cd 10.608169919563199 15.069531086999387 16.207041013383122
Cd 14.016663883087979 18.20641648768705 16.173861779336562
Cd 11.110623536359922 17.92439826896702 16.748627565123968
Cd 16.400551702774234 15.493666908495676 15.02533938340942
Cd 18.280468759211256 13.056177710546974 15.865347821793396
Cd 12.521565743162881 10.219305612576868 15.80678266499547
Cd 17.1193560903567 10.518872967719098 17.146161688454033
Cd 11.020412615360136 12.304722450969203 17.132523398987136
Cd 12.537248190116147 17.15332542317232 19.25522995488784
Cd 16.597591291124694 13.368687602576948 18.388405387419578
Cd 17.480147330148483 19.032661232011638 17.842940941997487
Cd 13.974416983858326 11.97615348097069 17.79455706508122
Cd 18.578659595230455 15.626081221501604 17.737313551542844
Cd 14.898209064347055 18.960246374291263 19.40165587483561
Cd 11.037102688301115 14.420057877107276 19.23545991325753
Cd 15.707786249604396 16.390125398157455 17.888751576861257
Cd 13.94452131896236 14.449420512196205 19.478367325830774
