47
Energy = -20.12260109 eV
Cd 13.114701744627796 12.621912076782152 9.654250667161032
Cd 16.098777522355 17.968975003532606 9.486837569270401
Cd 14.508907410107998 15.295887384386775 9.452369198749652
Cd 12.439345152827245 15.134268796866946 11.724487512897724
Cd 14.55857932674809 10.70594777632118 11.729460898949682
Cd 17.66659201043843 15.661581048300103 10.108661537679655
Cd 16.14469066699769 12.995573959359719 10.435802088519353
Cd 16.140122138352215 18.886864666970098 12.272948989736605
Cd 11.62262037232142 11.920390251866843 12.072563259841958
Cd 13.375190193022087 17.900104816445136 10.622174493653734
Cd 15.574633265597782 15.520590277144265 12.631790807963876
Cd 18.4005955073204 16.561301631839324 12.917370760161567
Cd 19.1240507129169 13.72958406843322 11.799379215645049
Cd 13.20916448020833 10.09168800455296 14.320817954601369
Cd 17.017619160959022 11.96071695739555 13.014406531398883
Cd 13.972762855312505 13.246232611893223 13.6834010837458
Cd 18.232646683453005 18.95043665290173 14.529242304560187
Cd 15.983189100377432 10.136894605869163 15.20344898127375
Cd 15.519953072560329 20.391259291735288 14.784885870208287
Cd 17.90433731274569 20.803601843311753 16.75419767032162
Cd 10.953978689241362 14.477086387018346 14.25027627867847
Cd 13.505806123613318 17.495887757275913 13.55851821391396
Cd 10.68294579824897 11.403276158164473 14.838295481891368
Cd 15.806930311353677 17.185534001975366 15.592204589049302
Cd 12.997972881441184 19.480327858063735 15.913094510835636
Cd 13.674362521021477 12.213151034223076 16.573414500498163
Cd 17.92830792871125 18.74783506048006 18.8716222212597
Cd 10.968678041266624 17.427156042396927 15.156612275792646
Cd 16.389038984883232 14.18192090123334 15.198280386282523
Cd 18.638406244226683 11.541251130362628 15.406799123752524
Cd 19.59544221026747 14.364935882948688 14.646732992494305
Cd 15.174233588549772 19.1353847528026 17.872970125386097
Cd 13.481333618421814 15.400045026414627 15.910325539435174
Cd 10.812480423405495 13.229684730452565 17.115330325246607
Cd 12.091190460193117 17.37352500824779 17.9314355439374
Cd 16.515302833803503 12.106252291619438 17.49961901540518
Cd 19.088564917354546 13.778507728677264 17.46184439323265
Cd 15.84018772762096 15.290067213871739 17.98451481909291
Cd 18.688525695565584 16.745891442126695 16.544687448603632
Cd 9.510822865954989 15.777982642286194 17.118408559551177
Cd 14.226659141083488 17.216200203879204 19.957659413071184
Cd 12.9150920467509 14.469093598037352 18.852108698597483
Cd 17.80019144260669 13.079332982524777 20.15125080957815
Cd 15.739468363810383 14.982028301232765 21.220907576573985
Cd 18.521554345454835 15.916153017196187 19.49391255303997
Cd 14.759160908790326 12.454148853473681 19.900679766163734
Cd 16.838185283021836 17.79683035301987 21.533299528208218
