40
Energy = -15.56527697 eV
Cd 10.2472016070789 12.239300449453728 12.110184608806536
Cd 12.375110032544601 13.637188079582552 14.073693987449742
Cd 16.122994709336517 16.8516880356352 11.155774172444723
Cd 18.909881298421944 15.769013240616824 11.393115341956456
Cd 19.073182188236064 12.82589091570986 11.805798119067871
Cd 13.592655610807524 15.925881338046326 12.341268802267852
Cd 17.041233516738583 17.44429332880153 13.865569029566446
Cd 8.876950965459658 13.83039672369346 14.565439036325321
Cd 10.536993822940547 15.421371788782464 11.660730065296992
Cd 7.738177834376743 14.036715533628552 11.679877175446784
Cd 19.34095566830424 18.99732897257261 15.042330287818277
Cd 20.712105921275562 17.003902975038223 13.348798728550232
Cd 16.0223596005353 13.900794091404713 11.607250539799685
Cd 14.13738836349533 18.31223043874744 14.438989217102174
Cd 18.510008769737247 14.73118506098963 14.449061196686685
Cd 11.578500225764152 16.69768372216352 14.379020769928315
Cd 21.185814603731583 12.41373287030382 13.806230026425071
Cd 22.406627823057786 14.887038356369148 14.690300385240652
Cd 15.320126267403399 14.722928973660387 14.646198732531225
Cd 11.187854535345025 18.59972392369921 16.522297733093776
Cd 13.401903330187945 13.148567265005244 16.8070369946808
Cd 16.809704793551735 12.075711104907713 13.771941727766183
Cd 16.464535698733236 19.442223434557565 16.08470885204311
Cd 10.880620203424053 14.806771846360315 16.624004532008186
Cd 18.775439712987353 18.55699201961894 17.920922364349117
Cd 13.70480018606085 16.32286508312167 16.88672725193287
Cd 19.159609063408897 11.739991203263838 15.791972089391496
Cd 16.3020615101961 12.3106759475068 16.68985509907909
Cd 17.032465792286473 16.16316376576564 16.727301924743163
Cd 12.026067288726788 18.58445429107577 19.481993527290065
Cd 20.32430492023582 16.184295715234672 16.468643681502066
Cd 18.78769227333997 13.823854941258647 17.831193774584058
Cd 20.311833644565514 16.176405675414358 19.464530106123007
Cd 13.793857319846502 19.840093464303617 17.297727866419415
Cd 10.784356158210397 15.739129297880561 19.362516739314728
Cd 15.551185146724972 17.913529717443094 18.813971274308116
Cd 13.593767256736236 16.059096554576975 20.278735757511228
Cd 15.495378088029817 14.389254116058247 18.701560661794293
Cd 17.8512267210265 17.618815066527162 20.627048384356993
Cd 17.804169775822512 14.62692291991355 20.55678168369045
