48
Energy = -19.90500161 eV
Cd 14.069055155314732 15.66281492315524 7.612932859824806
Cd 18.173362512492847 15.68342570643379 10.081090535060886
Cd 18.29314562993231 18.536483683649333 10.937339512664307
Cd 15.699035743784671 17.362937322148394 9.610566628498802
Cd 15.258828744597613 14.297596612423229 10.123279031800346
Cd 17.530205934238 12.962499903614926 11.39627277039726
Cd 19.682524513847326 14.927803377706155 12.616269694284682
Cd 15.59414293028011 18.822814529377375 12.243539349340832
Cd 12.774070499781491 19.431206363091285 13.110053119081552
Cd 13.834846931663376 16.312927180930366 11.871192161607812
Cd 16.739811933682784 16.018890175222136 13.246737558590139
Cd 19.540213493701376 12.080372810622764 13.436702630412729
Cd 18.0726281074327 20.317093657579957 13.656947095999103
Cd 19.962629844164145 15.426551913267303 15.591227182440116
Cd 19.376853147494074 17.70021290000606 13.731321862103528
Cd 11.983946404725122 16.86681335652814 14.22227249398055
Cd 16.490773937066862 12.835193409824038 14.278089565445738
Cd 18.949390357973208 12.518907385542109 16.272539157625644
Cd 12.944842798365428 19.70585687126279 16.17351110156923
Cd 14.2774058318899 14.982994749654122 14.674334752056636
Cd 15.11150936270149 20.777076858644033 14.445160954898299
Cd 16.812394231251524 15.29267842240422 16.861169986093568
Cd 15.388771739449524 17.764540627728344 15.483044129822765
Cd 12.74687586232542 16.46035619567283 17.08843862269515
Cd 20.82959623806274 17.156085905455864 18.023294195641753
Cd 18.21925968729929 18.013020270178668 16.562667848076806
Cd 13.381575447154141 19.488162781253045 18.965399948739186
Cd 16.641184387252597 10.762762536710989 16.796241561672407
Cd 19.58903458556465 14.347250893499384 18.411414537149163
Cd 17.058640752130987 20.810336495533864 16.63578113897454
Cd 13.69810454182627 13.882214648008375 19.23680469994072
Cd 15.220761002205705 17.10780228788932 18.71316364023515
Cd 12.115881065785084 18.772466112258876 21.465433624504524
Cd 14.64785197890847 12.92901358691888 16.701402126650763
Cd 16.390241553818218 19.90584525960331 19.274944842631633
Cd 18.40231326281222 14.264911446231386 21.346139197650768
Cd 12.184978431812157 16.18345791467448 20.07673518298921
Cd 21.191706903697725 18.398174074928686 20.77349177497799
Cd 16.78669656724387 13.103361155154476 18.990840908740125
Cd 19.408089368231106 19.82939926019762 18.812392929426885
Cd 17.981575199879053 16.751503375870513 19.542539790297575
Cd 15.578651320569854 15.184795242746912 21.110475009747876
Cd 21.25222685067581 15.411347057779189 20.624217691493566
Cd 15.185873071622563 19.046819607429665 21.8268409032288
Cd 16.72419262532659 16.874865399466653 23.451451237989204
Cd 18.247059568843497 19.042680752876137 21.57916261649965
Cd 13.685443181248822 16.605568559173975 22.83825463530396
Cd 19.567089462918705 16.675399142713857 22.77216990419034
