43
Energy = -17.44649548 eV
Cd 12.922956378373067 13.077433801799012 8.56792956192253
Cd 13.810005725851765 15.25601009995892 10.49260960229669
Cd 18.868580614656306 17.86549255955876 11.779981052070465
Cd 10.495512644823107 14.09573125765331 10.060162376023754
Cd 14.300188239769907 11.77989495332436 10.914421430779415
Cd 16.24151323573053 16.72470572635485 11.206051176436558
Cd 16.5150910513982 13.599978392172895 11.016970040730461
Cd 11.64710075248562 15.528017520623965 12.53926948688169
Cd 16.554520685946397 16.605816815879983 14.286129656623878
Cd 13.951491879047314 11.089347164585098 13.722787707386582
Cd 11.674073362295182 12.439628556769936 12.349898436505121
Cd 18.2121898970227 19.810098510299202 13.804443844395413
Cd 18.607403302767754 14.869935165757642 12.559280240682483
Cd 14.260313166533454 18.32736292524444 12.74617599479029
Cd 11.290451188949302 18.069219608367277 13.773052169942089
Cd 20.434224605207067 16.93268285126841 14.023349782395185
Cd 14.533348977692956 14.466810927629853 13.410343315114561
Cd 13.084014160927719 20.53183256980923 14.542023097309443
Cd 16.868709733990734 12.557091191498262 14.065415985000525
Cd 15.025921168318812 11.469125649928452 16.348282028181735
Cd 15.742663323451794 19.44963599228066 15.422353623195269
Cd 15.858418826422877 17.31377708873329 17.863541432937538
Cd 12.06437810645736 13.724920844360001 14.979849759761466
Cd 18.329345603573206 18.035637906769836 16.336143593701486
Cd 13.665096088599638 16.67862829213905 15.333373909964134
Cd 10.718588559480779 19.686193240831077 16.177056401280367
Cd 13.398605107078387 19.114760586816598 17.380123867516264
Cd 18.591644453273776 14.634548838168264 15.54306602949534
Cd 15.346098721999423 14.488691820985922 16.491716516161873
Cd 16.734219631720144 12.092009273123956 18.602322262338028
Cd 20.864561317995175 16.268247532047578 16.79578159810487
Cd 12.263539047051571 14.099276893146708 17.71359977596507
Cd 11.055640626029005 16.76585995178056 16.83839154831489
Cd 19.2773025039173 12.257109708340128 20.220283460185456
Cd 12.986002454221582 16.673404871866804 19.1446407164361
Cd 15.224451072127474 16.632539451288103 20.934635052727987
Cd 14.3809188406936 13.820157148959549 19.639034360971884
Cd 20.958647287100288 14.318634034285417 18.966421615557604
Cd 19.539121175617613 17.362811895404263 19.193225695377446
Cd 17.699147085078167 14.960671837970247 18.383178716064716
Cd 20.017928200716423 14.659543876190833 21.958200725481674
Cd 18.028273294370702 16.872558854733708 21.58689942609395
Cd 16.907407108168083 13.943773018224313 21.237192133828795
