46
Energy = -19.72266945 eV
Cd 10.87848398828583 8.289409549199956 7.13383630011482
Cd 8.234604260267867 10.165206352263672 8.145667870407832
Cd 13.849968381944786 7.658905195620169 7.881349293308669
Cd 12.921498521641816 13.339609846736577 7.262463245418484
Cd 10.193900578789071 13.894732895347063 8.54613286556227
Cd 13.727599296732905 10.45029847359603 7.034028990478087
Cd 10.824685839365111 11.273818251480614 7.420550953048954
Cd 9.271153810309134 7.977230938292485 9.861315862960945
Cd 7.637378772887307 12.767840774227947 9.693105952617481
Cd 11.698553720738643 5.581898405773395 8.275092336072769
Cd 15.398671616073246 14.226019481234783 8.490081162305495
Cd 12.549197000625108 15.468273874120436 9.415135960510415
Cd 16.094362938570235 11.24022434177547 8.548619202063149
Cd 13.311520719933814 12.127046664719504 10.185937011855758
Cd 14.239164739310581 7.634585948338889 10.896941663748159
Cd 8.545787856888314 15.489721865534435 10.46564689380061
Cd 10.343616720727432 11.708845510638847 10.858769746749704
Cd 15.204065611379198 15.605113740886054 11.128964456704624
Cd 11.635875351913475 14.212329993748208 12.054742927136234
Cd 9.811225775680343 9.150310673480046 12.570320908643128
Cd 11.985432380652322 9.435801222657844 9.968054530010285
Cd 7.360997428525504 10.240899709513513 11.121498508293952
Cd 15.805330378828119 10.217928870472477 11.31089564607594
Cd 14.556362611803184 12.960809641232078 12.746087134213392
Cd 10.779933199688534 12.103574021383816 13.94629112023952
Cd 12.791645586376887 10.322584979315728 12.739124858857284
Cd 16.92428996070322 12.9942472843341 10.864433519092383
Cd 13.939710831976509 15.845135870056227 13.851625306606424
Cd 12.450708282102731 7.228542378402497 13.451940278973453
Cd 9.984774930820645 17.41768481008902 11.980574457898692
Cd 12.926126808276937 17.50657351228918 11.584188228672074
Cd 15.520667182627781 8.392458383465438 13.581528760686512
Cd 8.105152883741152 13.459149859882686 12.586572716920514
Cd 11.27585256769061 6.060336466258218 11.109717945368807
Cd 11.63053796219521 17.99888817065321 14.434846377048316
Cd 7.340863578859658 10.832877972577815 14.054030203616884
Cd 14.75578888857338 11.02907965193146 14.951299118302916
Cd 9.77968246636083 15.42034882044966 14.406925703300978
Cd 10.715908128355975 8.831118426493235 15.312164646066487
Cd 13.46505303771386 13.614591545979644 15.673978700737829
Cd 12.181923452315344 16.221925397044167 16.616394474944197
Cd 13.60547624240641 8.504072860096741 15.867819567131777
Cd 7.959802041959363 13.360019409220344 15.549348424412946
Cd 8.98704964451159 10.822890646531562 16.618308762778085
Cd 12.12505567402986 11.086302542984281 16.629876545779652
Cd 10.515884268069575 13.672060690903237 17.015096781692954
