45
Energy = -19.97238104 eV
Cd 14.258331921466246 12.911100159428795 9.76013314612373
Cd 12.050498040600027 14.830506964717802 9.535190868794093
Cd 11.84557557700792 12.311444715506207 11.399523221971675
Cd 13.976260947778922 17.008682539816675 10.50802461057736
Cd 9.769795788248917 14.617174806179076 11.624728415671843
Cd 13.686472296267096 10.022975657595895 11.054782400251083
Cd 16.437307428456496 10.837475683021212 10.093835627921933
Cd 16.243200865694213 14.953383685078437 10.153029878630058
Cd 10.961999190552927 17.249120987624494 10.902147847053927
Cd 18.835226966935828 15.795156088531991 11.675935929740092
Cd 16.775517543433406 17.851482564594747 10.762908419044424
Cd 13.070288254650276 15.07729673016476 12.82543314472671
Cd 15.000867164205838 12.665630867606696 13.077799585914153
Cd 18.17392379425831 18.22047999509808 13.316058000947775
Cd 15.99062219763093 9.357074956670221 12.762150763288373
Cd 9.977414134159766 12.53407793509073 13.622700288854228
Cd 17.8982797112758 12.835797459895916 11.612265206283741
Cd 12.698277841231778 10.613470770807833 13.870148764078127
Cd 11.92356688526466 18.13492510464652 13.445156469177798
Cd 14.90362604489732 18.56408482630678 12.99523184411747
Cd 16.022462020546214 15.501786761237781 13.389073559556143
Cd 18.26898559975888 16.165240599237904 15.656270273532266
Cd 19.20212771192063 13.932266464397639 13.95652412836237
Cd 10.298467412879043 10.675185870566784 15.874001116743987
Cd 10.57962097489391 15.533831559114631 14.648207219564892
Cd 16.409297609531215 18.427598705360616 15.61876574904993
Cd 17.81251362488206 11.335302724206153 14.28328725557665
Cd 11.21081644405884 17.88991228130532 16.380412743631588
Cd 12.843054178992352 13.339422630694862 15.373048299948895
Cd 15.841528790345684 13.704882222764125 15.817040693202534
Cd 13.526908054746194 19.533360973939608 15.511722327709698
Cd 19.077914708845594 13.555178498701311 16.88600475462048
Cd 12.851540111835229 10.006017001781762 16.881956332651047
Cd 9.297097636272332 13.402122519029268 16.39040779494365
Cd 13.982388611871086 16.19090342372289 15.593023857233169
Cd 15.415560068158829 10.199484312150506 15.553739818208738
Cd 10.918820055222007 15.287254961427218 17.7826957602287
Cd 16.331614356814327 16.318032125196062 17.94223446474896
Cd 11.672553510067454 12.406054530214673 18.293142984019315
Cd 14.881622362656028 18.930753373962403 18.089355331665463
Cd 12.800259135035079 17.211897199697955 18.940199829865236
Cd 14.764559750123842 11.728561114517257 18.27072102271197
Cd 17.612877590441187 11.096615602121346 17.42316208071461
Cd 16.984430058627588 13.678501126731138 19.04931225936136
Cd 13.893690189885488 14.536254081964124 18.376269071406735
