49
Energy = -20.8791218 eV
Cd 16.472713610926547 15.377929039457063 9.923051876901072
Cd 13.819243678948338 16.292335309472136 10.997450709552837
Cd 12.22598028533668 13.87613399868119 11.518633156434316
Cd 16.415509931246426 18.124161779228302 10.81012803052731
Cd 16.668886238890195 12.459535780651628 9.96680164786703
Cd 11.220651842788648 17.515957766330647 12.280012982937803
Cd 9.870910234616224 15.005690607435277 13.05468944863248
Cd 17.753391263239294 11.120923185251067 12.47598030832838
Cd 14.084382988844501 11.57930348525678 11.063726649972438
Cd 16.17832056683585 20.371620137511233 12.752282596366923
Cd 18.27174957018143 14.151650583844132 12.121662662606996
Cd 13.622701689678438 19.08889011769918 12.124396847958641
Cd 10.001162827032568 11.836061645379027 11.899648085134828
Cd 11.886737465432605 13.064691819772074 14.481511827545333
Cd 12.28239555132479 10.239837100546769 13.26413885312899
Cd 16.04026987877267 16.629543341559366 13.599458018424924
Cd 18.479348122760587 18.370537757119568 13.098641150273725
Cd 20.125650901079567 15.970794183586586 13.454810365426091
Cd 15.166788680799922 13.828016193043272 12.863903472313746
Cd 13.271467245456392 15.692904742228158 14.402106049985168
Cd 10.550740239332667 17.096177854067555 15.208779983460012
Cd 17.386086491408193 14.27288772813175 15.129489811248565
Cd 15.10473083555622 10.773072881683417 13.84939275422645
Cd 17.529432891767154 11.218995527017317 15.480115039407412
Cd 9.486170164845632 10.115112851668629 14.360740024578186
Cd 21.324491137752236 17.486852221753978 16.273946689885328
Cd 11.222653257340955 10.968328269399787 16.55799168407817
Cd 14.130250251004973 18.542385183103242 15.020144711838629
Cd 17.786583061840947 17.209537403497695 16.013417506395133
Cd 19.65813111899124 19.86413929463692 15.52814333427627
Cd 8.068432433155209 12.718534910728815 14.179716062591112
Cd 9.53032747636357 14.378697705670616 16.1797439529986
Cd 18.609944112152032 12.960015462183842 17.709998870655564
Cd 12.488975691391275 17.137156348704714 17.38960346035074
Cd 14.569874135948183 13.11017172824737 15.79338476025501
Cd 20.3815357490211 14.66702710532897 16.047650734527586
Cd 16.674698566293326 20.110386308761758 15.633936779119376
Cd 19.621022540449335 19.049760543684187 18.374402490689498
Cd 15.315145292229177 15.788428349629541 16.821200969730413
Cd 14.261220568871376 9.994620994012088 16.637748701284732
Cd 12.898801803356905 11.36019119838702 18.899462350441226
Cd 12.142980404653937 14.133122289255276 17.443228786127747
Cd 15.862090525530697 12.164754453945323 18.3494935039893
Cd 17.14679293537858 17.88806800336518 19.627655432596672
Cd 14.094120148842375 16.890159935947036 19.851842182269813
Cd 19.141366415823413 15.900844953547479 18.463607707314623
Cd 16.55866411779539 14.864395531193772 19.451323432078258
Cd 15.07080742916134 18.960990289390573 17.84621128772146
Cd 13.745935172879555 13.998933642330206 19.94485979887258
