43
Energy = -18.36388762 eV
Cd 15.208391026884653 16.18390190944911 10.031542016463776
Cd 12.820977722875337 16.556516129919146 11.79725336472256
Cd 14.824834984965005 18.81060692795032 11.577802368393545
Cd 18.043846878355097 15.771141948035302 10.7964497130292
Cd 17.705025386142633 18.57729982794808 12.006429816133936
Cd 16.08957073184545 13.392279400226421 10.860364218512638
Cd 10.405366559373679 16.243530976997715 13.538659167316274
Cd 10.891697483983137 13.312072577926388 13.639772660902286
Cd 20.242598582336985 15.644818647900733 12.73969302305902
Cd 15.729410380919377 11.551440000347817 13.270146168751578
Cd 15.89483408242818 16.092017300992467 13.323440441872675
Cd 13.744005109254008 13.892095480589187 12.771855563439846
Cd 12.554961265455745 19.149488869206802 13.406293163959065
Cd 10.626514189835207 18.48882448896204 15.430079487045765
Cd 19.7962186994101 18.379870387147992 13.988619422039426
Cd 18.020605577476896 13.703136330736415 13.152511895123846
Cd 20.289271994654143 13.492598673099376 15.222518624200129
Cd 21.74060872181611 16.13252933621855 15.210235689235718
Cd 15.888716446749832 14.021988934716724 15.53996414309004
Cd 18.2536750403606 11.31147299175725 14.90699959114477
Cd 13.420909276864956 16.252465954933733 15.022372753576514
Cd 18.05534074073353 16.061267346081078 15.414444423416912
Cd 13.22850253373105 12.431182430599819 15.301549065875065
Cd 20.1120769535019 15.381906919064171 17.715124925879344
Cd 10.660516933973815 14.329077793565428 16.413251395784748
Cd 20.680422073837818 18.35380561528423 16.844251322455577
Cd 18.211133069585145 12.892611185912463 17.35554435772755
Cd 13.222928243320554 11.252008734019888 18.042770039282956
Cd 17.819554096421122 19.249029524512174 16.140162759936057
Cd 13.733890522387986 14.668958728491045 17.530521876557817
Cd 15.333622344884983 18.778492766092022 14.664318862110933
Cd 10.939323204110487 12.702533178862575 19.065892019261717
Cd 18.56220296394684 17.88060509445896 18.761488184709926
Cd 11.39684391939261 16.91374095584948 17.692520563040443
Cd 15.630822479627982 12.612315465061052 19.05141439357275
Cd 15.74226979234508 16.967025169342918 17.18798188388594
Cd 15.76714666987786 10.915802184485035 16.483528012119145
Cd 13.187413684383538 19.389700846971245 16.766722104050107
Cd 11.919431491789583 15.224998633183018 20.18941347985391
Cd 14.807828238116585 15.018573371069005 20.675981800540487
Cd 13.659952583737763 17.795951016783686 19.31888118826414
Cd 17.423046035134313 15.056907592607617 19.1484514305647
Cd 16.28695858455793 17.736675654026236 20.57604992048158
