40
Energy = -15.55818329 eV
Cd 17.78914011324756 16.4829407244613 8.480945544389364
Cd 15.83360597116857 14.274954780730335 9.054506905089474
Cd 13.366111960465929 13.025630010646417 10.209822765321693
Cd 18.641598382518104 14.09152266964109 10.396667934493092
Cd 20.258511232751978 16.81187140518814 10.459805999845068
Cd 16.970040510291277 18.665342731729282 10.297202206511207
Cd 11.135099393489217 14.483062370408536 11.311295647090876
Cd 19.549261997055766 11.825200356899446 12.131882925008538
Cd 14.62577571329815 15.756245762154443 11.329262980606867
Cd 16.59273437469527 11.664844931232956 10.727826332621472
Cd 14.014956505121686 14.064054526285572 13.70869963749029
Cd 12.309447890406808 16.907300347756294 12.941988325579429
Cd 17.647099012160176 16.52847304847314 12.391420944192642
Cd 16.885399478977313 13.723845454851773 13.036022662530588
Cd 14.997777087830265 18.480438615085347 12.438724054284824
Cd 11.477463246891675 12.287784479599507 13.806855631783511
Cd 14.184154357455203 11.28156090259162 12.490394811130741
Cd 11.724708471381616 16.66373027971318 16.004457843545755
Cd 15.031923934721089 15.763322035231806 15.887229927479492
Cd 9.54921415619158 12.84639460957388 16.21916405088386
Cd 18.843842194927497 12.289154818418087 15.033108424809585
Cd 12.73805629576119 13.746788402254838 16.400229911007695
Cd 11.821358212093646 10.821059171298911 16.553169738221193
Cd 18.444382487824956 15.28315513479154 15.294236294484064
Cd 13.664375555117562 18.811887983767935 15.095033761159645
Cd 16.806248387745327 17.959346589769066 14.866795063270425
Cd 8.908534527364413 15.765399871111768 16.70946713751522
Cd 10.071460223458468 15.019175994840118 14.01603638173186
Cd 16.008270965046112 12.756152809686897 15.839291744818365
Cd 17.461745552100727 16.60915308488819 17.846328753042133
Cd 14.450386681799632 10.208810604376012 15.160315086020816
Cd 17.294007784590423 19.60353864308385 17.275202934177905
Cd 14.520263641560554 11.296282042512297 17.986511417931048
Cd 13.36515069645537 15.991283932665782 18.639960363801773
Cd 14.655711855609967 18.465706239631697 17.88585955764695
Cd 10.787093702361956 14.468741380260319 18.731387885471626
Cd 16.112625105822094 14.08312848136992 18.555551466976592
Cd 9.757979368207597 11.623718567629627 19.092890167700368
Cd 13.517181894133424 13.314923407267402 19.963420955810975
Cd 12.364011128106528 10.430782848326706 19.907735874729482
