41
Energy = -16.32517677 eV
Cd 18.55999875149352 12.149504859897121 10.294706586909957
Cd 16.604122355203934 9.675882804740851 10.187672421335604
Cd 15.495971839343376 12.626104139956897 10.186693126946883
Cd 14.760563379819073 15.721345252282585 11.552556155197856
Cd 12.84043675363443 18.263381041476457 11.57701794142301
Cd 17.288216987700267 14.10228588321064 12.245959234687787
Cd 12.767061709057986 12.900850782904229 11.475120682884986
Cd 16.319596710725804 8.182500548877329 13.060926472528903
Cd 11.712818825968773 15.565271290777995 11.688207503986941
Cd 18.712493437857702 9.95934435787527 12.464301431603298
Cd 14.551235389264285 10.78025928415233 12.434056233944737
Cd 12.163800466034948 14.255958609531724 14.37209114001753
Cd 15.163670014978463 13.66446123038065 14.344344814335992
Cd 15.225472065512273 19.066883429585648 13.026683045731863
Cd 16.96580479153649 16.693589385432023 13.601463196347192
Cd 19.700210239663207 15.36775527425393 13.704496096747645
Cd 10.324550457541843 17.704204401347038 13.156675706948338
Cd 12.282949068116327 19.63344171957583 14.341028662781854
Cd 16.479042835932894 10.854336146421414 14.704820258729464
Cd 17.316458408455876 19.290456497642047 15.27149497305838
Cd 13.917432489567878 16.68089414159615 14.519061797036642
Cd 19.985119388565682 17.86379370661627 15.303552360485213
Cd 16.399753863371544 12.60009929463159 17.010048594974194
Cd 14.730194676671559 20.982562791305018 15.315668991124562
Cd 16.06052930092392 16.919586904268165 16.676467733663024
Cd 19.03619293080747 12.443025465840904 14.160458040216444
Cd 11.238871977229552 14.105685613654494 17.205249523686486
Cd 13.382228236114528 18.497971470690274 16.8774091952534
Cd 11.029140517193131 16.801314963308087 15.86222364073451
Cd 14.19311912723286 14.709357162900007 17.03243041401075
Cd 18.78730122061897 14.320450818533303 16.41546308914779
Cd 18.970988527243275 16.92671794006347 17.91493341209299
Cd 12.115221221952162 12.460495443152517 19.468888793159422
Cd 15.051892562660809 12.835872614593555 19.66793346709451
Cd 16.924594343472855 18.332402931801763 19.517972534991667
Cd 15.441187186706005 20.418519922241934 18.088631246493517
Cd 12.138047472079764 16.549413677953442 18.762812540112005
Cd 13.939153441964674 18.700304387182417 20.162113794354955
Cd 15.068905578593258 15.926180449195451 19.811697581952334
Cd 17.562921240064156 14.529175398353518 19.133871048927563
Cd 12.643400247165133 14.789027999836982 21.253466552382477
