44
Energy = -19.24988958 eV
Cd 10.034034062355989 10.433706410440053 5.726480442447856
Cd 11.579627664108033 7.779562949176761 6.6294227354186255
Cd 12.951719417154992 10.475952378202326 6.095158175048824
Cd 7.355152535484691 9.07270946921451 6.39447085058789
Cd 12.86637643300667 13.390771208259787 6.924711787389115
Cd 7.558681102375561 12.038872718795512 6.333983419129523
Cd 8.930028869489789 6.648812588893966 6.955728656113342
Cd 9.705173351719814 9.398838636309012 8.695735025060845
Cd 15.047479043860031 11.551240111161714 8.028232499217598
Cd 12.418918648932529 10.445169956334217 9.252045077512983
Cd 9.34352629132623 15.238778874654704 9.415223459604585
Cd 14.163385506711531 8.173890824447872 7.940501782690474
Cd 6.846383843905976 13.782433855713633 8.606561933621368
Cd 15.962134858386046 9.505683522334172 9.902652331480196
Cd 11.5610692152723 7.743625678603026 10.46723676084855
Cd 10.095517853607843 12.95885637508563 7.526355860244737
Cd 14.893739814270273 12.01084690690327 11.173894440904132
Cd 6.904892093676306 7.735851604563231 9.11652164288526
Cd 6.089858746755508 10.598371438467312 8.656270551815544
Cd 11.529549561694727 13.058799157889387 10.265740918582491
Cd 14.38339776777656 14.283878866161904 9.25414997397056
Cd 8.74071947102534 11.78326588333895 10.082301315250794
Cd 12.799261521339819 6.961662304213469 13.21004077143141
Cd 11.95673931366959 10.474147554211466 12.15943545790951
Cd 10.560689637917724 15.571017298459715 12.05039301212393
Cd 9.190423899327657 9.40892927320678 11.721552770864355
Cd 9.26512419417082 5.877777499432809 9.807572984341874
Cd 5.881642857643735 9.375890072636412 11.472921561454369
Cd 7.220536911276472 6.627664299191947 11.92469548581823
Cd 5.330907866526087 12.446114519062622 10.813751538841002
Cd 14.497333902496765 7.009584011209903 10.682926377852944
Cd 14.992187550125301 9.33764990427769 12.722052312666857
Cd 9.693452673382957 12.427738858151073 12.888901675972875
Cd 10.053007392121003 6.031761185286107 12.71970756878214
Cd 13.357433577029004 9.172640400203987 15.137814149394943
Cd 14.086611722173258 12.107908805719825 14.04046835627602
Cd 13.520112993726224 14.704507215874393 11.997767636069014
Cd 11.795478142978357 14.144192025518777 14.314385238643268
Cd 10.480140728826907 8.579422086388067 14.377071223124593
Cd 7.46535436097494 14.449350585837227 11.71183472109824
Cd 7.387403163910149 8.505444488909284 14.150263628353258
Cd 6.758379582961563 11.683138239758806 13.246608402994692
Cd 11.467208179403634 11.399632190103326 15.346053213112858
Cd 8.611841410355773 10.926545502630917 15.393040008284427
