46
Energy = -19.36836021 eV
Cd 9.299544076744914 11.163709418128716 5.544482408975509
Cd 11.98701706070067 13.046283536293728 7.945688843402984
Cd 11.952019959524375 10.248835286094618 6.3598428909227245
Cd 9.153848669152605 13.687683797550076 7.081238260498691
Cd 14.311297890270623 10.49138384048265 8.095540756626571
Cd 8.383919212537208 8.450561730400947 6.894664561977813
Cd 6.4232271106857075 10.671694779088206 6.342389417120511
Cd 9.655244218699742 7.36209137410139 9.318797974876356
Cd 12.040706905027676 9.283348400578031 9.642954197066686
Cd 10.072693844873859 13.178925670568134 10.623395122318255
Cd 15.137698817484146 13.29220529269145 8.065143312780695
Cd 12.990516407307744 12.071851082423498 10.609210418326766
Cd 9.491836421012042 10.886763084130607 8.68497935968694
Cd 14.855786188228787 8.348674854102482 10.350110633267928
Cd 8.12185577850694 16.054177013507147 10.161019901249896
Cd 12.229992389829516 6.632703879166576 11.122317072077461
Cd 7.1490871339813795 13.310478159934512 9.27618641463123
Cd 7.526537378579427 8.548102452789772 11.094991233975408
Cd 15.264906535129482 14.16911237552443 11.026087181343552
Cd 13.584698283879499 15.621316270231242 9.020516249278261
Cd 10.643471019436221 15.734611027942895 8.76844050471071
Cd 6.3320839248012675 10.487872876528098 9.270868779781557
Cd 16.184522524638524 11.197253332243116 10.271948305319116
Cd 12.241136615129754 14.998590686469015 11.692529575242402
Cd 9.498734794697274 6.689684111410083 12.288984872146667
Cd 13.849157654741425 13.004997424724746 13.493445147968298
Cd 6.798222394980795 11.317002577208937 12.06803101548263
Cd 14.439296025923435 6.97604323887398 13.04439018820449
Cd 15.896196692401924 9.630045428955421 12.82039235349566
Cd 16.866177480515834 12.554009156783534 12.978326806440455
Cd 7.7634281452296285 14.123136439094418 12.4307662076593
Cd 12.806189517569768 10.147017678602362 12.752048237069669
Cd 8.598907497015839 9.054586029522952 14.020692193028372
Cd 16.42243928153715 13.649477092130697 16.065420981609858
Cd 10.87104500978596 12.496494576542355 13.455496685580485
Cd 10.040142077350344 10.314432746951898 11.602375315204487
Cd 11.50956934722681 15.55229040911018 14.455950201278652
Cd 8.794166690861786 14.670972228039638 15.151687826014783
Cd 16.405818517562146 10.784510027139309 15.472805828341269
Cd 14.103884435121525 8.691479396319293 15.509482721623428
Cd 11.530160448909614 7.827832957012999 14.172511461040807
Cd 8.04548681444201 11.867314366807141 14.684006174792133
Cd 11.101086980674586 13.348215328259943 16.73081488435129
Cd 13.475923837837486 11.548780397792772 16.125955566634186
Cd 13.796046414393842 14.830613117202198 16.120295570313136
Cd 10.748842633854647 10.377406109338628 15.68734744505187
