47
Energy = -19.77733089 eV
Cd 16.812730873791857 16.26847493291666 10.574096933818936
Cd 14.620449632621039 13.924196086548497 10.11572794748902
Cd 19.185119759197914 15.028985318015785 12.08325666544278
Cd 17.425466510616616 13.316902088822028 10.5485977872686
Cd 15.328828588562324 11.881890954520868 12.239852066306959
Cd 16.25514360386147 18.85410646102083 11.710801898178923
Cd 11.80774448560495 14.245431050111899 10.778528717910582
Cd 18.174508673668605 20.83943838360502 13.116679081485465
Cd 19.137159273656373 17.84668941874947 12.910263795026058
Cd 13.928459933554183 16.320955501579398 11.81723636487913
Cd 13.282463541499157 10.51719141147466 13.940243513246386
Cd 10.519839422616542 13.527285252084129 13.2048169409869
Cd 13.56223205285682 13.757529052551664 13.807064346273064
Cd 13.961350821233735 18.131697107228966 14.08788589112602
Cd 16.139143669040372 15.199385856601035 13.600099466079374
Cd 17.996760901394254 12.650246421432252 13.584844547897877
Cd 21.77207632582934 15.047797483709886 13.494448512791053
Cd 17.148024452498078 20.883054830894366 15.936578616027154
Cd 15.158877990775764 20.877959009262113 13.516973902359078
Cd 18.719413396811643 15.364958808150273 15.24996530146029
Cd 15.693771112773717 13.341961673568939 16.095074140941325
Cd 11.679092864799749 16.12420616069503 14.518858772830571
Cd 11.328832087906704 11.985037671897667 15.757384162418864
Cd 16.975389303263636 17.913786652149255 14.855204012406906
Cd 9.295283172594722 14.202062762730245 15.721382057835624
Cd 18.639996985638 12.549754245906088 16.486841285114924
Cd 12.94362245712599 14.275690976545457 16.760482027191333
Cd 10.149229310310865 16.345498606740414 17.448761180133637
Cd 19.8565818443604 19.681174031460205 15.359230293466446
Cd 12.594824177967071 17.907495363072606 16.93558992287339
Cd 14.253323300169349 20.278740039084735 16.456661386532247
Cd 16.979437104695126 10.240661882566487 17.656154177363717
Cd 21.271473602580894 17.035316369700038 15.646823330805287
Cd 12.38167972088151 12.573124563782459 20.202732247091276
Cd 16.23703110841004 10.398745331260454 14.842287984840846
Cd 10.168825345688166 13.314430836720733 18.45507999428818
Cd 15.162426253513129 16.286187040715223 16.372196185858016
Cd 17.649632718617337 12.708321308194726 19.27227069048949
Cd 12.26145991378001 15.546398131734778 19.4553321061338
Cd 16.65545162129164 18.65078876757579 17.862527421873292
Cd 14.959889768559071 11.342662321129382 19.59745759785011
Cd 14.503712305837336 17.427219826982956 19.42683511339529
Cd 13.820581044833032 10.92563738017256 16.91117723872179
Cd 19.487650282795645 17.864129696142125 17.802531788860552
Cd 15.001580388310469 20.462760179947452 20.170386284953562
Cd 17.733856043174654 15.440442506130037 18.110571802622403
Cd 15.048209535369732 14.362227529052703 19.170841781992912
