41
Energy = -15.74526222 eV
Cd 14.029382452290232 13.558311401385925 8.252571803351548
Cd 15.181395420184861 15.469070492458847 10.29703420109414
Cd 14.801211171691978 12.476985071408635 11.464608132804608
Cd 14.315104212763526 18.23766739924339 10.564216597743629
Cd 17.783038918003655 12.976593971302211 11.132542445152758
Cd 11.313118470164286 18.720623875973043 10.510349492970334
Cd 12.050371455306374 11.887493242753221 9.84027480030633
Cd 17.298830423319316 15.570184272411895 12.46071715340086
Cd 15.110022160614179 9.733010372437285 13.56574883763815
Cd 12.731474303514032 9.658747118309385 11.658240827419075
Cd 12.320262399525172 14.403025453581861 11.490289152495903
Cd 11.18930886232147 16.81931577373849 12.845113054643836
Cd 14.34883332304284 16.069554712363534 13.19098626915964
Cd 16.038262183566374 18.988307520040454 12.874974621456179
Cd 18.21711221440215 17.664891253843177 14.297693190144255
Cd 12.896162108417924 11.864482392354262 13.903709210207285
Cd 12.915672268857707 19.284589836684095 13.230018530713197
Cd 15.858482270532813 12.997743240032229 14.206433919881183
Cd 17.988967586772148 10.652299368355305 12.896676910594389
Cd 17.58079762071061 8.869775859681893 15.255578181231165
Cd 14.81438056679057 20.749240305471947 15.208180980964627
Cd 11.95183089942433 20.528973055987986 16.072512376229778
Cd 11.761062609889999 14.50684254542687 14.597573217116175
Cd 16.391796959950707 9.312306989046537 17.920368605261416
Cd 18.2557116402741 11.840317633166238 15.70766345628473
Cd 15.075610577248634 17.640271185388762 15.614198006436627
Cd 12.411447880903019 12.617174027583625 16.881102646030914
Cd 13.899941993958896 9.968645217031403 16.338758190442366
Cd 14.510745736790888 14.900112861845571 16.20412420967879
Cd 17.697260428887738 14.861414029428575 15.529712796638886
Cd 15.765474704103807 19.581340079493 17.840529572879376
Cd 17.740503508393452 17.295103429612137 17.247251300202475
Cd 11.772073671188695 17.58524340801452 15.73080624670147
Cd 10.703536043352017 15.318470888908257 17.306139473114342
Cd 13.414624291343994 17.14590371607388 18.216214564397898
Cd 17.664634017983264 14.592172756861526 18.631050145689187
Cd 18.18647623459603 11.642919670079694 18.783252954426775
Cd 11.925620722938735 14.066802069344957 19.617463059447523
Cd 15.409397624794742 12.29752361456381 17.502276206296493
Cd 14.755668575854665 14.59882286610937 19.445074325972513
Cd 16.10035691756949 17.22369245444211 19.843935765618617
