49
Energy = -20.72566708 eV
Cd 18.30025553262641 17.250752186886444 10.525631444340025
Cd 13.02254465776069 16.383962109104164 10.405530908813507
Cd 16.00329025247656 14.751188858846144 10.310368865715596
Cd 15.568012584247038 17.725263989569726 9.636693951899588
Cd 13.339284951403911 13.389376043604077 10.363736206721098
Cd 13.63864716308421 10.75386536410398 11.449024616946035
Cd 11.056724018824196 12.137839765336551 12.439517002596999
Cd 16.57255896862776 9.533789530878042 14.820433343509489
Cd 13.965347841419382 18.957649581565203 11.798993253029165
Cd 15.984149514185523 16.861007131593595 12.822388484388018
Cd 18.500437049805516 18.98167592637203 13.17682777155188
Cd 17.810013656947277 14.28421821246556 12.664499215838228
Cd 10.868950201975846 14.951817322900201 11.84786465372311
Cd 15.88110262947925 20.13374177675423 13.698189691204123
Cd 11.340877235201175 22.197325089420822 14.415664211015791
Cd 19.9273381152522 16.42690229832068 12.839210400757182
Cd 14.13642093590034 8.711368177388996 13.607228020982582
Cd 14.694071152792972 16.71427867097934 15.451412494097124
Cd 11.300503718191445 9.182461355104618 13.042421911784992
Cd 10.86573090836975 14.242535063583734 14.838962263689732
Cd 14.053540967237918 14.533411565561392 13.191945201880335
Cd 16.073367545048725 11.965074406305083 12.744727018097912
Cd 12.29448424130091 17.020414749833503 13.461308498274931
Cd 20.32458101167181 13.683553707329098 14.29357918040863
Cd 22.01777848437656 16.068512181705003 14.902776679466477
Cd 13.708911067201472 11.920094976522575 14.608330781232176
Cd 17.962462419889345 16.406209685804832 15.204241891089222
Cd 18.36919833249902 11.756966257286098 15.142766305684333
Cd 19.10757816586711 14.174563357577258 17.04094483318585
Cd 16.13652245210472 13.826131607603598 15.415235604493601
Cd 10.896680526081479 10.948273488329416 15.309060522656125
Cd 21.10267915414631 16.790047664183653 17.554763803375145
Cd 13.073487668545619 19.71853417479604 14.627374615196803
Cd 13.377787422997814 14.185215046456037 16.65183775090431
Cd 11.67612583731264 17.034586580096764 16.382671828552866
Cd 13.667625509568678 19.247489466761852 17.392497624372528
Cd 16.01616879344974 11.111203564505885 17.27867252488174
Cd 15.720714119859489 15.470378563168458 17.977448137608192
Cd 16.703167837407474 19.04614327432489 16.29367756887648
Cd 13.102524510254979 10.981280165967759 17.463542109555092
Cd 18.25531940067234 17.045856762677147 18.154339102589315
Cd 12.617920160284303 12.948798150279634 19.664179705111138
Cd 10.299681205931664 12.648208158950156 17.530735684706432
Cd 15.893351235120143 18.527734626646133 19.191826618484782
Cd 13.262834109235198 16.817350418520576 19.16488213917828
Cd 10.870157612845883 15.236110698581335 18.64804394429291
Cd 17.19981997257237 13.099069868869181 18.969946240681796
Cd 15.044457570616602 14.10960032035065 20.75161443146339
Cd 15.236819833728669 16.950176312628287 21.674439197497033
