45
Energy = -19.09121739 eV
Cd 14.389242576636372 17.616835601299904 10.619147537526311
Cd 13.462929390630157 12.122736208230982 10.62459112869039
Cd 16.543570107985403 16.155664716141988 9.366646191541749
Cd 13.017153173410263 15.031234774608045 10.313269391036966
Cd 16.013965051228347 13.275275766320542 9.7754375759039
Cd 16.53404754370055 17.170656675035303 12.606967466254808
Cd 11.86713643095846 17.270063830264178 12.187822407613634
Cd 12.382069276222136 10.916418709771063 13.084470945963112
Cd 10.605542734865885 12.907178221157027 10.474570456026349
Cd 15.266721802983623 14.387619255023289 12.623154361715315
Cd 18.28358862767369 11.770023086773705 11.014211153337474
Cd 9.582727170708363 15.339780920267582 11.821677000874578
Cd 16.759077440897485 17.703739387558024 15.548406222006275
Cd 13.973912546149233 19.663598388327944 12.593029116918387
Cd 18.300188762852827 14.78618164665817 11.372404017879903
Cd 9.57431817347254 12.506246015713826 13.218002566512109
Cd 17.62578554532245 12.870239200545535 13.90118668902359
Cd 15.909200436492 8.800544263816748 14.62769134240514
Cd 12.352918185446471 14.222408138122502 13.472125649505358
Cd 18.2916788610204 9.723219288408586 13.065057667244625
Cd 18.74103345729655 15.67061941887234 14.131341302816928
Cd 12.055723681484967 18.957583188145726 14.761501886528777
Cd 15.252414014674715 20.20362239924882 15.18801753515934
Cd 15.505418243989215 10.834795058679193 12.322860789722984
Cd 14.076505103061079 16.521232175010624 14.483305179838641
Cd 18.385027173495093 10.70754687332068 15.832077195260792
Cd 16.05818377275436 20.644858819518294 18.26838688255348
Cd 14.503876861503906 12.334340602776905 14.824832912357987
Cd 9.983234452703496 13.979532743778387 15.899064023053416
Cd 9.948275946755736 16.64070547584922 14.529267966602461
Cd 10.782386790032803 11.09305272977443 15.563409444875587
Cd 16.095743417516683 14.686075685890978 15.818105416522103
Cd 13.195530582231166 9.188624282736429 15.546740936269142
Cd 12.92986753350389 14.350813178311842 16.525436370621744
Cd 18.029086863731628 12.896958770832986 17.68343956052072
Cd 11.677019388320232 16.966531154172774 17.014177853297475
Cd 17.346254455702496 18.036707137707257 18.472154039494722
Cd 15.70895036188887 10.67985936988643 17.154107436122196
Cd 13.462548788971924 19.335850613251953 17.48698720676155
Cd 10.262308012282022 12.81955765247855 18.822033978929614
Cd 12.808017754624954 11.489729536857338 17.695381081538397
Cd 15.033637003982776 13.354601107051623 18.51002962198513
Cd 18.891584557224423 15.776793614850863 17.011771936629806
Cd 14.651001721449326 16.557643902724664 17.99824134451582
Cd 17.088091515715206 15.24019570778061 19.35495450359411
