44
Energy = -18.12429411 eV
Cd 13.903584971634926 14.237043281761146 7.067383852358017
Cd 11.946578032258758 12.0982018462889 6.421412567586639
Cd 15.23793111241766 13.158135789526277 9.487392543749543
Cd 13.895191194032188 10.699404607045366 8.222764820269203
Cd 10.953285674744345 14.743150765163755 7.56397676264402
Cd 15.653844444890263 15.827778266804609 11.287460756611427
Cd 13.099351455890357 15.416628047082217 9.77370284131644
Cd 17.117362145455985 15.178885676689124 13.796200777102683
Cd 16.819389508798718 12.714791846827959 12.16598975115082
Cd 16.869867637791355 12.329168087452027 15.246117533808926
Cd 15.560542238494138 10.315844966291168 10.601835864068153
Cd 11.184635664393289 9.472808061690476 7.719832365821426
Cd 12.072751282917858 12.448510096809073 9.863000795031798
Cd 14.411309315761144 16.95306826754168 13.846594854927977
Cd 10.143033077045907 14.871305857548178 10.486153420930254
Cd 15.436519623489572 10.150356366172963 13.586799374728422
Cd 17.151451124911848 15.301496587180536 16.738168508809558
Cd 13.195625878024241 8.100784846934998 9.72153484468414
Cd 13.72976409110364 12.84884210914615 12.311375502764983
Cd 9.310570681752015 12.125072673748427 8.201731421278765
Cd 12.116868144985725 15.363617516327748 12.699583698181861
Cd 14.305539624257024 16.009372545274974 17.336398850323835
Cd 7.493785246276649 10.389405952569396 12.47824749418996
Cd 7.849484818472237 7.943081017551588 10.676633809835645
Cd 9.380532010422622 10.744112990647963 14.911440203894454
Cd 9.723588749675072 8.412552620233745 13.03433219787784
Cd 6.862202994737623 10.51515017494639 9.426126524214204
Cd 9.611724367272442 13.552124375346047 16.23309701580774
Cd 7.370547117351181 12.977062945174628 14.147773184069212
Cd 12.294244167106653 13.561592924857205 17.922132367007915
Cd 12.035213587098646 12.227403859137633 14.99887446177485
Cd 14.30916599667802 10.757266859446363 16.31262157430573
Cd 12.794583532797317 10.046556181680755 11.929636052671201
Cd 10.435557196879536 6.891025681392293 9.52292781664739
Cd 10.195050870045568 10.097555248376581 10.465036968032837
Cd 11.759696120482214 15.960193170063924 15.734911304898723
Cd 7.946861643502631 12.906336110607626 10.884385859809585
Cd 12.147519973984286 9.166548832670296 14.69518506783472
Cd 15.327202223018324 13.084331394452281 17.944764315151264
Cd 12.03106517398767 6.731077380743509 12.223171492975183
Cd 10.562994760085404 12.271745574603552 12.445368220181564
Cd 8.366214430723959 8.560662089607414 7.700729022938595
Cd 9.354311830523075 15.086014939989452 13.585757681754247
Cd 14.344373202435904 14.064848505198606 14.89235259458431
