44
Energy = -19.31013061 eV
Cd 12.293225688249489 10.06529629574241 5.470471007565487
Cd 10.081613497742334 5.5790931157863435 8.811648357434407
Cd 11.030111802751865 7.674106298368955 6.88070006429891
Cd 13.782885080185048 9.193148428256741 7.800902274764511
Cd 9.371931785747302 10.028308109710434 5.699923572556074
Cd 11.204094357537965 12.695814355941902 6.0372442443316165
Cd 6.840138937471692 9.98442319043216 7.130030724465199
Cd 13.118289644482054 12.084080028471718 8.34458411304888
Cd 15.711554051672044 10.849477181001546 9.6115589253579
Cd 10.558415711474385 10.122856174475881 8.70885960014402
Cd 12.946070865810348 15.079995990358414 8.897619709492234
Cd 8.528591827942106 12.42374821561844 7.519388220064305
Cd 15.591039974296944 7.7468731744584085 9.687302110008
Cd 12.779640898720523 6.759397138971495 9.209421276102951
Cd 7.925825544609463 14.539632053008397 9.63897892721169
Cd 8.24017555404494 7.803101994575355 8.635387888784331
Cd 12.714253879211046 10.05025726812566 10.847950342159045
Cd 5.917069665927543 12.180892436429996 8.975343853680316
Cd 10.255113848951684 14.860951108478826 7.673450055943356
Cd 5.612704006203316 8.753685633902606 9.53446833086993
Cd 10.74398765117024 12.718216341184744 10.269398852006171
Cd 8.33840830170665 10.770453463175459 10.582722879490913
Cd 14.895837097904312 13.620211314630216 10.490739253815505
Cd 5.967741463552702 13.54996266307812 11.651126655919255
Cd 10.424894711021574 16.060873969919037 10.356419225983808
Cd 10.04268577443389 8.275157802040585 11.212068988739803
Cd 10.939670758638993 15.584253137974974 13.118001384763968
Cd 4.913134212763699 10.776150578357242 11.530931593535142
Cd 13.783405212083762 6.889714142231671 11.99463025749099
Cd 8.756853615382314 13.54290277243412 12.58292677519459
Cd 15.347803989024095 11.93913814950284 12.94059001450209
Cd 11.040902322157285 5.2826887363064445 11.547812573144016
Cd 6.783605582238567 8.517889137425843 12.274871444938523
Cd 10.592589617347215 10.852080209779169 12.79431142271312
Cd 8.75118787964548 8.267674393287505 14.339654991283806
Cd 15.960612438499414 9.185311106971813 12.235241776865928
Cd 13.420072605653836 9.211923807927073 13.726480953993141
Cd 7.030303447880284 11.274874761920763 13.586221342705617
Cd 11.359891231397647 6.913111280920647 13.923881565824223
Cd 12.733502695643251 13.24498364102294 12.547530753638371
Cd 10.68797237403412 13.319468568900769 14.997767248662887
Cd 11.288216966413653 9.353692599441683 15.68595198941512
Cd 8.956679152596212 11.064681097714118 15.734925434696532
Cd 13.181388154404075 11.753542010363532 15.204652901018326
