45
Energy = -19.55779363 eV
Cd 15.51886639136408 15.368945059231317 9.121564834313514
Cd 13.914775738638761 13.088200551192491 9.96399204612994
Cd 12.611819237251913 15.802079305566624 10.13869384543325
Cd 11.227820234914985 13.48926507785796 11.476916712729954
Cd 17.403915878406753 13.439504736290555 10.480516373026612
Cd 11.945652853829746 18.461778205149315 11.342245186561964
Cd 17.644188285335698 16.49385120394613 10.887276776040299
Cd 15.65277165533007 11.622719697205104 11.975081220046677
Cd 18.641857675131618 14.836340217536078 13.169393007291832
Cd 9.386346073064459 12.647561863796652 13.644241866359879
Cd 15.208346739122447 14.833619333413083 12.57501639977448
Cd 14.786988852296568 17.68055812691905 11.088914414937388
Cd 12.761798316262643 10.641795083368219 10.925342001345026
Cd 13.143615372925733 12.835341299445208 14.023454086928218
Cd 11.124469718544683 18.897365112699614 14.037012192592695
Cd 17.040460677279967 9.801986910869086 14.078962123520151
Cd 17.0655672871779 18.683688474700183 12.740674791534047
Cd 12.499421131338647 15.777524417977318 13.357772036330497
Cd 18.649964132014556 11.966186872428846 12.810980795515494
Cd 11.260757869531455 10.393475312309391 13.409384358890833
Cd 9.49099051325243 15.618745283497956 13.265720592815615
Cd 10.021643990788245 16.96921048352497 15.963924341608665
Cd 18.218868593838398 19.00072593555841 15.312842581507171
Cd 13.747729448013894 15.264012323421827 16.109283759255362
Cd 16.003212386645384 13.049284149307335 14.850304018991277
Cd 19.918478821298883 16.482226608294624 15.15052422968899
Cd 14.536762450985641 17.87388901707587 14.214477484886432
Cd 12.994208072685725 9.86652632754876 15.880763233232216
Cd 14.203848332772546 9.395299092368655 13.261670128442681
Cd 15.765367508309971 18.73140265146353 17.029575219304704
Cd 18.68747890279662 11.68626070002815 15.832242517041644
Cd 10.325096514367889 11.171642240983964 16.2771397024543
Cd 16.555119055272677 15.892683685435257 15.25885658637877
Cd 18.893420590726283 14.344487256395418 17.055206623654588
Cd 10.84355960064223 14.111924231701465 15.894911342262205
Cd 13.908557601263356 12.346275866467542 17.11132865384553
Cd 11.390393420383894 15.822479608028882 18.374340037339515
Cd 16.466026617753514 15.61879684779182 18.506034583268374
Cd 15.931169960140172 10.116944516187175 16.757809032819853
Cd 18.674701407528655 17.37225255972822 17.780253105994955
Cd 12.670961751779828 18.47373550819153 16.525641960354484
Cd 13.996653159370116 17.15282359222151 18.7638311700304
Cd 16.729309684785235 12.64270620718616 18.195134627251328
Cd 11.366549690081134 12.777883504982343 18.722053033543695
Cd 13.927229885991292 14.212737021941011 19.415438445960714
