47
Energy = -19.75933883 eV
Cd 14.35895631439164 14.520738755291543 9.914542707984552
Cd 13.433229603138491 11.350171358297771 10.309001889207902
Cd 17.61537772251707 14.54059318604731 9.12206030135498
Cd 18.727178229631864 11.922617593562874 10.237935517972966
Cd 14.096090762928563 17.139062390458317 13.032568186106273
Cd 16.009665962412008 12.007299735546209 8.99336940730669
Cd 11.401834984084363 16.35977443594388 14.111304732100182
Cd 12.904856382450385 14.279588110295393 12.468576372416468
Cd 15.636256043032262 14.549427798046244 13.801225307512041
Cd 16.482974341888553 18.98027911276936 12.683656411768307
Cd 19.166938768675536 11.607371454856905 13.163173160123735
Cd 16.3801918434732 16.542499882111606 11.031539949785962
Cd 15.959761401083005 11.988198307815956 12.081364913124178
Cd 9.97577959489865 13.656640557105558 12.859363573434592
Cd 11.907244246254576 18.9860065446609 15.659512742159457
Cd 19.36776622179591 19.945191249971117 12.877575241628984
Cd 18.068940697565377 13.550825525507038 15.254992431662524
Cd 19.220004012501168 16.97896912728647 13.122943906046142
Cd 18.456239143330038 14.439549122372844 12.129570437970214
Cd 16.765709304991113 10.597767133536028 14.616389767024268
Cd 11.73214018150666 11.248656816513689 12.623568320758183
Cd 14.687317481749846 19.658644108305197 15.193765604792558
Cd 9.669458676055203 17.290697720592604 16.5142874043986
Cd 17.596117674371566 20.323435379487048 15.239639043306079
Cd 16.788500349219994 17.0274418933088 15.145948109439642
Cd 10.462209885271726 11.769392225892117 15.253064211463204
Cd 13.972955751410872 12.07013262887986 14.516644445128364
Cd 16.496132337293496 20.645569174213346 17.98872749524772
Cd 12.337367034913527 14.211006676221114 16.030493361950484
Cd 15.305286864205367 14.046621253911228 16.823142034646295
Cd 15.495870495782565 10.994482703841458 17.15020247951351
Cd 12.481564656904999 11.291956612821414 17.274354186616403
Cd 9.168662840942368 14.60125163158233 15.50026601581597
Cd 19.45765902097599 15.982443442851089 16.360047505883283
Cd 20.58258330514726 18.634638633162727 15.309405986588246
Cd 18.67025197457201 18.61902110701536 17.59641802225523
Cd 9.884038998655345 14.62070675985541 18.370647738170554
Cd 14.037133331408976 16.713691359107873 16.304824390656734
Cd 14.235223002114164 18.972730296683707 18.422108044777122
Cd 11.820398895859318 17.13599678272113 18.562896609786556
Cd 17.079851190313057 11.637697471104431 19.666384648513198
Cd 12.771691120334713 14.266592950309887 19.112542262754648
Cd 18.085644078856845 13.99913266938439 18.192157185394016
Cd 14.022763569443548 11.682291591689753 19.79544602744302
Cd 16.505211056150284 16.660488381422407 18.25202258385275
Cd 14.20379465000061 16.80341841009075 20.38447110393075
Cd 15.702601559033281 14.336715501086523 20.133283783762597
