43
Energy = -18.41017378 eV
Cd 15.781408638218945 12.768239674012205 9.203591761983848
Cd 17.69558337995827 14.586657766461853 10.837704659534111
Cd 12.292379238273215 16.17063332554714 10.79303807477241
Cd 16.543813191139066 17.366043047943208 11.35355809986191
Cd 15.074835324117227 19.991110135099273 12.259266340977032
Cd 14.884579320117748 15.546223135551879 9.57590540077832
Cd 13.062869459858797 13.012877442368806 10.356719578370173
Cd 14.011913798060766 18.4598793545537 9.89328230535329
Cd 14.286510095319318 16.386103379597298 13.32776784110557
Cd 18.820640940063704 16.266198594430236 12.985813345184882
Cd 17.69714567319172 11.581675481892884 11.100748758858053
Cd 10.408758320500436 13.961852998697593 11.094780081693765
Cd 13.271095127943358 11.271666747956791 12.838751800451554
Cd 15.28699863047668 13.597118724244643 12.66321662867124
Cd 17.17019662358395 18.912357544888696 14.02834387720282
Cd 12.37188860901615 14.040072050860914 13.86241791670275
Cd 12.325017722286516 11.935800583551535 16.093517209036257
Cd 18.937242416789605 17.197717342418976 15.71365747174035
Cd 9.135799019930035 13.819432525011383 13.636660503924299
Cd 12.333420392108424 18.90148566129507 12.480256527156818
Cd 16.95136311970214 10.72432177429073 13.70807117098752
Cd 9.557001941112343 12.927464697879651 16.285777653685983
Cd 15.209517558941535 12.534294074683336 15.545690990789861
Cd 16.43928118822336 15.182722348959956 15.081554180272104
Cd 10.416031388993252 16.570142998880858 13.091897406801728
Cd 13.934080704213356 9.823827825021834 17.439662637868345
Cd 14.172503924892172 9.139443108136078 14.55208928332968
Cd 18.379118950297066 11.739103290504463 16.239264571413162
Cd 18.700027122806357 13.377624137744258 13.773325155025002
Cd 12.359527363063332 17.756923988525973 15.314006477028817
Cd 15.255098967363926 17.892567016582483 16.084231286517642
Cd 16.664296634071523 9.207461170949133 16.222384839865512
Cd 13.616087269948965 14.99041744132153 16.380703809718177
Cd 10.232721369612534 15.83644094680934 16.085071278042292
Cd 11.238622526910305 14.018181719881463 18.364820422776088
Cd 13.610800054793922 12.25163506188743 19.073656201900363
Cd 11.90506386183468 17.191731190887655 18.280674291830938
Cd 18.74194757138511 14.474361180190414 17.07618956124758
Cd 17.407109258341116 16.999988133475618 18.170607894856268
Cd 16.433126501418833 11.403109811151227 18.398358587778894
Cd 15.958545902683932 14.340449378542878 18.422892949989713
Cd 13.465544900731839 15.066651403043165 19.954797013815195
Cd 14.738796821653182 17.556302608215802 19.133584975046794
