41
Energy = -16.57802631 eV
Cd 12.85658576706095 12.453638473406562 10.153243580087478
Cd 15.593184454589219 13.545707046489207 9.211838630081942
Cd 14.415180838417927 16.3082335202235 8.788382611171935
Cd 16.94038464170766 16.363168063880487 10.272422401418082
Cd 12.411536218841132 15.419376421394086 10.724274390380767
Cd 9.923354255934905 13.582307215872316 10.510635942795531
Cd 16.581286944418927 14.05009107860421 12.218601019684678
Cd 15.549399840250805 11.274387294943127 11.22107616227214
Cd 13.751280433584968 13.32336855596116 12.943278797170441
Cd 14.657546090121146 16.496014926831258 12.399727191485256
Cd 9.502470426569744 16.46475768456152 11.377741896113292
Cd 13.836134826737153 15.043679484956325 15.516566067337468
Cd 18.42376509542908 16.81297542470847 12.873705760244901
Cd 13.312476548735559 9.702283796041026 12.50863120826393
Cd 8.397385087925903 13.998247765317773 12.98604648824251
Cd 18.065563167828007 11.489042360984815 12.982419631448904
Cd 10.773518349938662 10.984257104411938 11.793373174709824
Cd 19.682081408646457 13.99544630610649 12.759485489462522
Cd 11.547685721099942 15.30586859226448 13.567716765426058
Cd 16.37425731888706 13.349496551524977 15.172639793214266
Cd 10.693843181058366 18.576831158844143 13.110972763986823
Cd 15.542851833958203 10.336263876863741 14.33824797119938
Cd 13.200366662310952 17.99003612487708 14.483602543559819
Cd 18.231715676723578 9.593674518946635 15.458329477470926
Cd 13.499562686059821 11.92617707760502 15.788238019145808
Cd 16.31088384742895 16.61261402984501 15.050942332393172
Cd 8.924664451051475 14.235364793987369 15.894042831960219
Cd 10.952357964689506 12.447381242254862 14.286984807061344
Cd 14.97794205458369 18.76339808869261 16.69814905807394
Cd 8.590158838493798 16.889441718053988 14.544817398664629
Cd 19.821372375331045 12.308874172950517 15.424563616688003
Cd 11.105502730598278 16.34216630434506 16.35014494513174
Cd 17.68923092340978 11.604163765439209 17.527039771840194
Cd 15.13711709254641 12.956243674338983 18.18525698708239
Cd 18.935493188142928 15.221915756713821 15.500763864059527
Cd 12.612956235349133 14.610582304251581 18.343844851449248
Cd 10.917633355693054 12.455586764091217 17.33075089655067
Cd 12.779453712563303 17.682423876422888 18.38288885470644
Cd 15.475202324660156 16.084279424216593 18.148393277154643
Cd 17.613662097507568 12.481873070314576 20.575496368192667
Cd 18.10245169974379 14.62786095709179 18.304222731248014
