46
Energy = -19.49384103 eV
Cd 6.397047268816642 12.32492103480816 15.623332607729845
Cd 15.613947784843715 11.55162073598388 9.399997930934804
Cd 9.807228966533836 8.26925177331557 9.574077397358021
Cd 6.85925970932387 9.861977569774895 13.821449598392137
Cd 10.56338548640665 14.781428570485224 8.716248652033935
Cd 9.503501281602427 12.235421429424177 13.963861307681336
Cd 13.059035157098103 16.043810424434785 10.162682645756687
Cd 12.809213887554158 9.4522129633337 14.750983937766689
Cd 13.659977981556564 6.532384051594976 10.348159566651352
Cd 9.951971588446282 9.138794833888355 14.221927278371815
Cd 10.22868377200231 16.950215111174764 10.701395214439055
Cd 6.807617406687719 12.6607609894107 12.614397038393657
Cd 15.892784791320897 13.00282537048364 14.68255398970745
Cd 10.878806455209924 14.006993514076141 12.018664773803962
Cd 14.094589498124721 7.505154451101854 7.510750698183997
Cd 13.958425067967978 11.411541305031825 12.477127578175464
Cd 9.336288889647424 17.199304467094787 13.67480510168711
Cd 13.038509395786084 9.773372643744818 10.01531065767224
Cd 14.121187010448935 14.552085597514694 12.738293042446525
Cd 12.612154180827181 11.779607380628846 7.082421219918153
Cd 14.337873006886726 11.319952174558193 16.63634850865745
Cd 10.683581681987013 15.053224279976277 15.204651579889584
Cd 12.47126519959384 12.736643106246989 14.664554190800828
Cd 15.4223091944446 12.702845878259028 6.51846534886292
Cd 11.609327278603338 9.02199679850789 7.4478110629271805
Cd 10.883785461271762 10.903158411183858 11.784701822422601
Cd 8.400630776173175 13.298724179879883 10.063167306431419
Cd 15.831306079975002 9.743556573970334 6.741992521807613
Cd 8.404478293800105 7.830777568594357 12.134769810953673
Cd 7.529739646605199 15.058243351508743 15.197595495061462
Cd 16.074963534981627 9.95708424370113 14.718811668455078
Cd 11.27381688923193 10.97973631512119 17.036465636514798
Cd 11.502826833840324 7.7045017256253585 12.0265865427133
Cd 15.60990686108019 14.59864813036841 9.237393581351661
Cd 12.772885051551706 12.812548650926132 10.099663581420083
Cd 8.377482251550743 10.193682746231637 16.470963264298575
Cd 10.058149228064305 11.341037034097646 8.688664431700994
Cd 13.216597413694332 14.69226071464896 7.404937956734104
Cd 14.57339823768363 8.29476828224367 12.663619942427736
Cd 16.70509801132217 13.292477111021022 11.683711305858031
Cd 7.86606006440567 10.426449598680135 10.827523018275233
Cd 7.827714839997073 15.361859836159319 12.029740091301935
Cd 12.195772311653945 16.726527791821777 13.039997580893322
Cd 15.913246411087714 8.56340609790936 9.78510706527323
Cd 9.126672237362715 13.079615398184515 16.885818518251106
Cd 17.125995477505285 10.26108763782982 11.896995784172587
