40
Energy = -15.69376665 eV
Cd 11.8880099662461 17.71359600219139 10.091993730254105
Cd 16.13938609055265 14.877335917380018 9.780866628127152
Cd 14.636540194659418 12.481014402559975 10.964484958168525
Cd 18.532455534488705 13.918750202821819 11.282052180156516
Cd 14.717981417179596 17.303573564088463 10.867403456503634
Cd 12.947366766414358 14.845714850387902 10.125048564428257
Cd 10.588545272875118 15.888086464482935 12.056389254079063
Cd 12.47136034543171 13.6441610547764 12.945789707578285
Cd 16.880612422910538 8.80519927439746 13.715033300944315
Cd 14.534426648106649 9.715565651828149 11.928994735487498
Cd 11.67820980981851 19.79088695844082 12.196954417689073
Cd 16.224629558064056 18.067615286348286 13.196850890860631
Cd 17.138045988784487 11.614893352025904 12.582468732363465
Cd 18.599604592732256 16.12896256383551 13.291708993222773
Cd 10.203424785998358 11.72395206240972 11.723692087759234
Cd 15.353242285938881 14.968292422376534 13.02023526962707
Cd 14.776190016474473 12.112094444372639 14.403848505105818
Cd 13.026383644297097 16.92626640176115 13.622671929005387
Cd 14.08555849203363 8.204228648729913 14.559140768735471
Cd 9.885643705903771 15.844927453434098 14.938729221600264
Cd 17.41238599863853 10.82332345527395 15.790280792412233
Cd 12.575392798381122 19.724240722372887 15.021241639126911
Cd 19.767895434127606 15.5321963532864 16.30428395808302
Cd 12.19654089093965 10.478171715665937 13.780190547391381
Cd 10.600758604461342 12.938254984956703 15.288691561183677
Cd 15.09745575917866 16.480952900557615 15.861854702635874
Cd 13.214561256852315 14.233628183271778 15.853308796833485
Cd 15.57930645636879 19.813654685941643 15.571120670896553
Cd 14.3301541474815 10.2521500077885 16.757484537266706
Cd 17.352198818429976 13.86782852187224 14.932962529333217
Cd 17.790698923799653 17.66747618607665 15.849523770210313
Cd 13.771216719961847 19.456960584097732 17.893066527570152
Cd 12.146482766912346 17.05882273694148 16.60289176546837
Cd 15.529997333494933 12.94128674136223 17.52192874408737
Cd 12.711733596175938 12.396815452422919 18.366132497798347
Cd 11.276915719646459 10.436518820882698 16.70861596646267
Cd 17.11704719506586 15.398863639822538 18.021322816545542
Cd 12.447224684111545 15.219635731087243 18.92661092718317
Cd 14.839453014223988 16.927668907678232 19.133799850671473
Cd 18.915344839195 12.756815186351389 17.500712563501736
