44
Energy = -18.19657828 eV
Cd 11.32588774200016 11.205238556401262 7.1854004916321985
Cd 8.895686130137058 9.442467547540565 6.500732293954189
Cd 13.859872443236554 12.762322245338504 6.9479826344100415
Cd 11.126234573791965 14.181864260866647 6.689963956241441
Cd 8.835119230224235 12.388800607808522 5.8971171851246424
Cd 6.676682960591263 11.01830763376624 7.565515367561958
Cd 13.4193365916566 15.242793125944011 8.380360785248508
Cd 14.505550057332592 9.989086261470089 7.441683988507832
Cd 12.060813223000256 8.211619372931466 7.382109233325259
Cd 9.36221520205334 7.4797631456076585 8.536229761896472
Cd 8.365646426777678 14.448467537837066 8.003927298382175
Cd 11.929753180542438 10.264575430076308 9.950449309739732
Cd 15.739158002980428 14.37473488369559 12.634819381975857
Cd 8.66191399125915 10.259360446744875 9.86029243735303
Cd 11.88954368274846 6.458786571652969 9.9278846928821
Cd 6.8273894539981015 12.839714335705134 9.991623129353314
Cd 13.268741542142731 13.100485508151051 10.443612020392672
Cd 15.087292605596714 10.781240512891646 10.301647326133091
Cd 10.737980446196184 16.02593514826685 9.27117107140492
Cd 10.332616091897224 12.775313737465613 9.881213403647637
Cd 4.469266817616919 10.512398339557643 9.492839112735087
Cd 14.379523775836143 7.909452563273035 9.601029088064385
Cd 15.844632035203137 8.45897491031534 12.154611349185856
Cd 6.229716820153621 10.311570103548453 11.903536110257464
Cd 8.559005563692267 15.134478131834394 11.104015846737804
Cd 7.98113971918718 12.80035930990378 12.725183442485173
Cd 9.471929831074268 7.663855533284753 11.46171404272642
Cd 12.730808101874477 8.56137271788779 12.191492979388789
Cd 11.060095240882083 13.576376613516533 12.852756573647483
Cd 13.208104442982082 11.420566424725758 13.049762707145623
Cd 13.553935571293747 15.935820152566466 11.457222319450398
Cd 11.714356612006503 5.593155347107667 12.71132495952921
Cd 15.325346277607823 9.445448208648855 14.879844774905154
Cd 7.378292195232185 8.073290344318721 13.512777834356735
Cd 10.296032639106535 10.439118413985673 12.584691350460256
Cd 16.284319176645113 11.548878194227157 13.029876561057621
Cd 10.869899453717295 16.524258271829172 12.325578632287245
Cd 13.056820253803306 7.239940378181376 14.846901237581816
Cd 7.29294784529264 10.693777140570074 14.756936283998114
Cd 9.307704811736585 12.759629105202404 15.4147328354776
Cd 12.256224010339821 12.609845686838469 15.61260620320934
Cd 9.931961477147057 6.949305902458158 14.583378511181676
Cd 12.865334490690692 9.82941054678256 16.399621279245537
Cd 10.033356009843155 9.766027540400927 15.56201694684496
