44
Energy = -18.67387501 eV
Cd 9.52222129095123 10.645410927693819 7.298495569151666
Cd 8.205069697120399 8.000858325075113 8.379764818249752
Cd 11.184717217238001 7.669384804143546 8.142897645196525
Cd 12.392998759341099 10.419741468117127 7.9357965391841105
Cd 6.874753596656621 10.683969982004712 8.605542643211441
Cd 10.969933356155453 13.213353396068753 7.7242542343490435
Cd 13.756965994379751 13.43882186999246 8.791914843321079
Cd 7.81049867257784 13.447945390252316 8.162955066236545
Cd 15.174314255130641 10.572567367439659 8.588339322954576
Cd 10.012948542630372 10.237584617824695 10.290070554909084
Cd 12.722380300737447 8.537895635790525 10.598397950264102
Cd 14.216824354793255 15.912824278500322 10.841090160161272
Cd 11.498362834470043 15.530516161028215 9.701402406923975
Cd 7.398339951078175 9.197518643137611 11.215534439718505
Cd 16.461843923613568 14.153169204184008 9.829912264731675
Cd 9.862251753160448 6.880241403517072 10.679596181484854
Cd 8.765805628545792 16.186026225531418 8.610357299102647
Cd 12.540903378440682 11.621901932124393 10.90663728640917
Cd 6.888499242846396 12.467359989928148 11.006542514075445
Cd 12.064454781668639 14.47782894477055 12.476873807706468
Cd 17.17716921030622 11.180033249177544 10.526360837864802
Cd 9.78637430829155 13.161594402498416 10.641141085753658
Cd 18.615185968789312 13.40481658140609 11.921692652279356
Cd 14.770088844208926 12.935807864999237 12.091533703092498
Cd 9.47816189338464 8.256624087380056 13.24358637683051
Cd 17.500640677164252 11.143498886278632 13.548499481278343
Cd 16.647081450014117 15.324803356933336 12.948707018694758
Cd 8.797039218315978 16.060111052718074 11.625859255741616
Cd 14.985494726406442 9.828341715575707 12.19900802070926
Cd 10.318799915104671 11.366153836544743 13.022345914412922
Cd 14.053108784082838 16.417672570053238 13.928411946397656
Cd 7.254464340460129 10.796021077137793 13.67203452406918
Cd 8.053084645945221 13.816068020665497 13.388117465351488
Cd 12.926430744458898 11.957599398917363 14.195637983321777
Cd 15.739535810002891 13.15193444917885 14.970345150438199
Cd 13.380377315843504 14.654633629668508 16.224012222447406
Cd 12.54945855655511 8.928057822869556 13.60286043371569
Cd 10.607017272975968 14.1523721401325 14.961919133427987
Cd 15.50250601307779 9.876666896105062 15.275375985934982
Cd 10.579429589330324 9.613942339717758 15.674751652581529
Cd 8.690252321127277 11.977191543868429 15.88855430549362
Cd 11.453534120371838 12.12667892995899 17.067309550579996
Cd 14.438463588603316 12.045570012735936 17.44202118672752
Cd 13.230603358916541 9.387275773625607 17.011928770783662
