40
Energy = -16.64858455 eV
Cd 15.153894345420714 15.815583850901715 10.677652111443974
Cd 12.119874857754464 15.28855657600213 9.79956721607242
Cd 11.191321240361441 13.583045122608308 12.35202583435293
Cd 13.541840411757002 12.766759353189387 10.296888626720653
Cd 13.174951316866759 18.081985583715593 10.452360906399756
Cd 18.13501853035532 16.187075033830055 10.90897068723847
Cd 20.340318132808456 15.618865818127249 12.910072877061504
Cd 10.928818980152112 16.787315713099108 12.107246904339103
Cd 13.604089260989873 15.21187168202721 13.190911982220493
Cd 16.30827487208865 13.140721141587733 11.13418581332748
Cd 12.868083016905253 11.031104902000212 12.66546944125495
Cd 19.286255156341404 13.22840495250234 11.419046283156243
Cd 10.422147692259548 11.419993762312304 14.274959827355628
Cd 15.025987146514149 12.562131071507611 13.969336346154725
Cd 13.162167973434096 18.42477891574788 13.490972247326717
Cd 17.571475642835296 11.043101533650507 12.756650218497263
Cd 19.36575817882686 16.001561464491896 15.725975497589287
Cd 15.867707225453561 17.443365021881018 13.16856937456579
Cd 9.760604558104065 15.43994956297358 14.362097219828955
Cd 9.042331707646948 13.237074773601533 16.1267871766595
Cd 19.713368575864713 13.113341070646156 14.47419401705611
Cd 12.492854840208594 13.659430877258853 15.517054828896644
Cd 18.826895127285823 18.098378691148103 13.477268430901432
Cd 13.045162970673669 10.049194100931715 15.54860082804485
Cd 16.839161105134867 17.914074935475934 15.955787789674297
Cd 17.058265418497587 14.748430395797527 13.707910514590008
Cd 10.722040526213656 10.916713823794746 17.20801017502048
Cd 12.219606700683286 16.812006728335827 15.712745546897665
Cd 17.550714766053 13.593151237914162 16.56413416865801
Cd 18.184703331458387 10.766591507645217 15.589525111138048
Cd 9.85806423769871 15.97407039714751 17.35291876147226
Cd 15.000672822273014 15.350407414653732 15.844621245200315
Cd 17.742279693407433 16.11471130137301 18.222831489150863
Cd 14.087231658827562 19.172951084475656 16.407208187977332
Cd 10.584082947540816 13.504458763908794 18.827610645166146
Cd 15.483080790771451 11.332678778304851 16.701099428324
Cd 15.461219459776004 14.180833835374024 18.754777154105433
Cd 13.20802961042212 12.307217051121228 18.198329687701637
Cd 15.05728149909011 17.415896453564628 18.615121147742112
Cd 12.803198337813427 15.471050381941813 18.339338917288828
