40
Energy = -16.27313321 eV
Cd 17.407238486908703 15.947518165622762 11.345658499292613
Cd 14.65412449119929 15.284333994976166 10.763756659126448
Cd 12.031026579895109 16.838548138896503 10.610812562055054
Cd 17.313553237504426 18.689874306402 13.033294912254737
Cd 12.048891222819545 13.843274886443432 11.514106230258994
Cd 17.580920652473626 12.987931039092903 13.675507774998227
Cd 14.850528920687477 12.855910248589893 12.48166809599175
Cd 16.78834964387175 16.02384501061814 14.474396606474944
Cd 14.619929854915265 18.216399442536392 11.474517230600208
Cd 12.076640283506004 13.310602740259327 14.54574313712742
Cd 18.32656199675948 9.945344948701552 13.61605359924475
Cd 19.780771140015613 14.850953123886125 12.885047385584857
Cd 19.943555532073166 17.697611605398457 11.970021007411146
Cd 11.964681232293938 18.20096158362 13.447625760766899
Cd 13.756402521360895 10.87548710243872 14.476509646496709
Cd 10.213494013938957 15.755992685406657 12.798614171716483
Cd 19.71176881600698 17.626324440967206 14.940889792601617
Cd 13.896818103254825 15.772189355090264 13.714872397129774
Cd 15.174486826016047 13.710978682090403 15.590569787050045
Cd 20.808882691546994 17.001243895371367 17.614428860525397
Cd 11.31714729351547 16.0859693326387 15.589896182467609
Cd 16.926827701419576 15.328187457535595 17.72622249457929
Cd 12.006500531256666 19.15529698969873 16.36033818038817
Cd 12.495469593966119 13.894928255676993 17.433167772868195
Cd 19.313797874464367 14.699377517348335 15.838471905908081
Cd 14.752786598894811 18.874964152491586 14.46331855373666
Cd 14.450670035708294 16.618939571987173 16.53716561467066
Cd 14.056919941646568 10.019750935487185 17.305954237584167
Cd 16.517075561550836 10.947263611805532 15.936367657863714
Cd 14.882474102312173 19.868184640040425 17.222161116512023
Cd 17.404386782656154 18.376963772398707 16.581471099768237
Cd 11.925037292804756 16.797055448844482 18.378735087941706
Cd 13.349361713042034 19.035033944217325 19.579963954679677
Cd 18.238775385174296 12.522449031855784 17.663570891447915
Cd 11.611873237347432 11.216673716550064 18.53686680983014
Cd 15.13050073985236 12.646398664461836 18.456580312634486
Cd 18.882212474809126 17.282126304021737 19.902624692612434
Cd 19.892378448695286 14.512445052419427 19.154344376279486
Cd 16.07430702415821 17.84325391918417 19.277139144704616
Cd 14.323922389404514 15.340463254653885 19.582596766541112
