48
Energy = -19.66838442 eV
Cd 10.916934122251673 17.876821577195493 9.673563374313161
Cd 13.078349829578602 15.71930378300484 9.509137535034123
Cd 10.125636007437716 19.28696113606467 12.217668844012152
Cd 12.435875338934707 12.993546480378079 10.239606635788002
Cd 10.141010865278876 12.404386648799779 12.231059727810035
Cd 15.18686944853098 12.200236365600487 11.066287417762823
Cd 15.554241795526808 16.939370749987333 10.572142477967084
Cd 10.100040284140288 14.855862154784957 10.491888215370603
Cd 8.282249011962836 17.221636892446554 11.082607100528156
Cd 16.95991382446786 14.497959797384041 11.509174908131225
Cd 17.54788449228238 19.071879010874465 11.358859821899781
Cd 13.239066644506881 14.18257591068201 12.997500729657528
Cd 12.865681527660438 17.10640896394558 12.251370292354908
Cd 15.259055301184048 10.161053462056778 13.26700400996072
Cd 18.69813359439329 14.373901424778678 14.354602419178509
Cd 12.61278164046004 10.826896958647806 12.362087525950967
Cd 15.881606166107668 13.141896378007635 14.02660701029747
Cd 18.703386727740007 17.014425714977797 13.06217739477418
Cd 12.2564023306477 19.48209760414353 14.222474569379028
Cd 14.987605932687558 19.347624037814086 12.812068205977607
Cd 10.772519676474081 13.497227047034668 14.948702251964264
Cd 16.892840074440425 9.481126431023629 15.449055878199085
Cd 15.63549691780511 16.250070816213224 13.66932385776187
Cd 20.75038231892163 12.884277649321742 16.409819630725526
Cd 10.251122422717152 15.91392034989704 13.313401611865805
Cd 19.489335261203134 10.223300869398427 16.68399942989713
Cd 20.21487352324025 18.01784407209054 15.49382034430535
Cd 10.104784133350346 15.73366161581628 16.928886822424072
Cd 17.255303942330023 8.887079447975625 18.32416305193146
Cd 21.363555095482482 15.689408407866672 16.891936607967676
Cd 13.041946996312376 16.258488294444494 15.154473225251337
Cd 14.657389717188774 19.13877964633988 15.773475485022947
Cd 12.635251961924034 13.960670371384309 17.223881999637868
Cd 13.292941371175498 11.892341215670633 15.135990343102735
Cd 17.190558237238246 17.760619480342026 15.786536427180376
Cd 17.446575441086768 12.62052494738189 16.49348159653184
Cd 9.79189589390294 18.14219649678695 15.255644512088072
Cd 18.72776622305264 11.510618841889253 19.415149336014647
Cd 12.0657669586801 18.08541080608618 17.359603872952693
Cd 15.424672392417905 15.04838429450948 16.496532162528883
Cd 14.91137398449289 11.062520840188558 17.420206002577896
Cd 20.213142120073602 14.10142027713885 19.34580483668754
Cd 14.87015384373502 17.752100394751047 18.309295392436717
Cd 15.905881442540087 10.484872134134473 20.427520780929342
Cd 16.926486043483973 16.08028611854584 19.928308290786454
Cd 18.339819844043173 15.501059451930548 17.39046293705435
Cd 16.16251446165325 13.227804992016257 19.276801195873198
Cd 13.95184759050079 15.208062413494622 19.504756675398706
