49
Energy = -20.85512601 eV
Cd 18.529318061681217 15.121273817968651 9.742008540737018
Cd 16.76227400933248 17.532822035889374 9.745035184411957
Cd 15.433665129218655 15.039128327811643 8.954181368496599
Cd 14.727851364606023 12.468911897362194 12.770514730326338
Cd 13.465104568156468 15.009866150527996 11.147507161375705
Cd 16.67664299501047 12.825563438471152 10.559675338584018
Cd 19.4548606641594 13.38597497715798 12.14693980180524
Cd 17.744140990996897 18.924132799961594 12.07870163468368
Cd 11.822036360101805 13.476221840339097 13.03173229230895
Cd 16.39579171631886 15.240874651994284 12.401485600866305
Cd 14.646236472409022 17.66041391901048 12.016921729950093
Cd 19.261889762715967 16.278184173341213 12.63716817817688
Cd 17.50664456966548 11.04698392015679 12.813588819206036
Cd 14.492787419093485 14.959403637825204 14.732857553790376
Cd 19.755480854310026 11.664471604964175 14.595796396005444
Cd 13.28349372343492 12.136374597001014 15.417184184867091
Cd 12.21780651216962 16.55646282404536 13.522688454176631
Cd 18.946574227419003 19.019162755900222 14.748864486945905
Cd 15.547198426936605 19.376602240890982 14.235048189900573
Cd 10.842915739416874 13.84800652316493 15.724916046695434
Cd 16.90231527911712 16.758111580250603 14.920923915065854
Cd 15.303267020273086 22.01694281508092 15.386223286063098
Cd 16.172750490107195 10.857249759555055 15.472122666084982
Cd 17.487507291710514 13.814878068124095 14.762341412361765
Cd 20.328244671773167 16.39804669909497 15.38031562264539
Cd 19.40693299833269 17.990064538775165 17.757988150707362
Cd 13.971592498345045 10.224154018278075 17.59839343702113
Cd 13.049938802490594 18.449900156312868 15.665956767917006
Cd 12.003004549091145 12.42376159672838 18.185348264020003
Cd 10.607965826487078 16.78613215795376 16.12650536576758
Cd 15.531441997253852 17.66012444052792 17.304574481115615
Cd 17.443046301292384 20.14644934146107 17.116539935374885
Cd 18.592777345433962 12.236267168347329 17.418258254855196
Cd 15.583421878640761 13.44166831050823 17.174218434472728
Cd 13.419065576409354 15.547148067462905 17.297536130752825
Cd 17.352663440593926 17.372642829967248 19.89635606682774
Cd 13.379931887447794 19.532321200442762 18.430505253297607
Cd 20.870881580656846 13.805016351097487 16.366785150897204
Cd 16.730661471686528 10.436346796661244 18.598139328025628
Cd 12.843952708772463 14.596149575821846 20.15277082186009
Cd 17.899553914581013 15.30544812969188 17.47848048411129
Cd 10.182624912423528 14.822590964684611 18.55025628271807
Cd 15.106963363940098 21.988117589594477 18.29877308093177
Cd 15.927540535589532 14.770201538843228 19.92909164805839
Cd 14.640993187638443 12.108621135275119 19.92981971101155
Cd 15.840639303226743 19.838333379600936 20.370584321980996
Cd 11.396517461002794 17.468525324153802 19.06822804830978
Cd 17.950973608218323 22.01756687201347 19.617604412970497
Cd 14.198122288066806 17.254389217663316 20.360549329221143
