44
Energy = -19.18847699 eV
Cd 10.16435260228917 13.315592343084504 6.633953909245722
Cd 10.955590889755118 10.362318770986201 6.616932141776172
Cd 13.07302605393945 12.61266855732234 7.075632590800209
Cd 15.666108725811755 11.673321073071719 8.459492638684843
Cd 8.754956258772339 9.078940887608576 8.130187081929078
Cd 7.9548186916161825 11.954177642996836 8.121886293610741
Cd 14.585239090655284 14.425710582415732 9.060678717568084
Cd 11.359175278089586 7.648467124999754 7.990785393840883
Cd 11.757692891249954 15.232791441505201 8.718129995600945
Cd 13.302368228817928 9.889384617231677 8.591708668839223
Cd 8.917856399453724 14.50293631105055 9.348764681022484
Cd 10.969546217761408 11.937510965667629 9.493536286560015
Cd 15.930063976237994 9.246277080117697 10.38303681249532
Cd 16.7445015436103 11.98558657241044 11.297053785484911
Cd 7.045144982004233 10.172247660798064 10.397167221398368
Cd 13.652072822971471 7.1869111310915965 10.046879357958439
Cd 6.658660064470926 13.047864162410594 10.7288352678066
Cd 8.091632668664984 7.410342829969644 10.51071042443278
Cd 13.632527603349391 12.209922186195312 10.951883038624072
Cd 13.382200215536669 16.46793387734664 10.998563702448314
Cd 10.878839407390597 6.135253063042228 10.537218569994607
Cd 10.6400709781349 9.326742684093736 10.769828416708537
Cd 10.493327525984881 16.993096682845035 11.578559144309285
Cd 9.440034339041144 11.695192686856677 12.084655581204602
Cd 13.319804576578768 9.51134345896938 12.087496619678843
Cd 8.417419335962052 14.954875295187763 12.367958264652746
Cd 11.385662920919403 13.997407696705984 11.709177067522116
Cd 10.617559012256894 9.394121283422326 13.958217944193565
Cd 7.470023270662819 9.152897676740743 13.218837992366517
Cd 15.71921641160251 14.718446908353334 11.787669007929093
Cd 12.317193321798227 6.732532961902342 13.175790143362711
Cd 6.797964760473317 12.433527269747643 13.60300015407769
Cd 12.222482466444767 11.89225278484459 13.586542746858575
Cd 13.76107392281385 15.522892697680424 13.917494484877434
Cd 9.342235729708706 6.80806435092121 13.1547385652397
Cd 16.114269270837475 10.134718827554103 13.543126195693237
Cd 9.51109777438381 13.389080646340402 14.82496612329081
Cd 10.868435665993706 15.945729634213968 14.43488159919722
Cd 8.312762685281998 10.790449318223464 15.56256643829289
Cd 15.21358229269948 12.906039127261709 14.115681185515701
Cd 14.138960596621311 8.33883980167834 14.867062195581317
Cd 12.484345391548404 13.879285983979369 16.07759761781694
Cd 11.097390350026398 11.191478310189673 16.57208363146746
Cd 14.068801368840743 11.024913612029042 16.139120881105885
