48
Energy = -20.88179058 eV
Cd 15.225333337251863 16.657420519240265 10.014614921074804
Cd 17.161962519657845 15.574984602728572 12.073804753605982
Cd 19.780792533302332 14.453103906434404 12.614832394330783
Cd 14.50448353923247 14.311158979578886 11.876838211904959
Cd 14.860057748728964 11.384506158939201 11.468310673745684
Cd 13.831143443808715 18.710162701379875 11.655347515380695
Cd 11.065066184555183 18.500073122771955 12.744861015406295
Cd 12.132659616738156 16.2658139021171 10.908761560785594
Cd 16.804817982555406 18.60520802599057 12.195712270867627
Cd 21.960317248622832 14.185049192846728 14.533285401589685
Cd 17.602058221563254 12.429218735836358 12.07521816731465
Cd 14.793653351372269 19.768934990943652 14.169073962318931
Cd 11.131583515495578 13.875564864218836 12.231931128046492
Cd 15.973194580610691 10.34253985531592 13.95774757819501
Cd 22.246099485519423 17.16502658804695 14.98134618071241
Cd 16.155337696175533 13.616981682194732 14.576225867147393
Cd 19.25084140633061 17.315554070569974 13.596131100916633
Cd 19.28895607279875 12.373212418439453 14.685282308314322
Cd 13.230860274631226 16.213941607046227 13.870440111327808
Cd 13.160322637433502 12.35966676142509 13.914491765964119
Cd 12.193927455001894 20.037578102330947 15.422848063946407
Cd 16.054069589253597 16.666503346180072 14.772270478032528
Cd 10.718021586304802 17.35029667705561 15.378455655708022
Cd 10.718648180343878 14.443833553083312 15.141246202677314
Cd 11.083418702677974 18.85686620356488 18.048397186202603
Cd 17.68673473903559 19.57281844323503 15.0720706060213
Cd 12.909859986602374 21.020392743449253 18.472730841870355
Cd 13.586021758213477 14.330764870116097 16.308861607593833
Cd 14.660215612988322 11.44079193412008 16.417674504985676
Cd 17.64401123399487 10.693370027940212 16.36955640727763
Cd 18.627068677636537 15.204951830121644 15.626460874218306
Cd 11.121010890635569 13.078500508175262 17.877416699091476
Cd 21.651081432128347 15.113230560600703 17.294776028310732
Cd 13.789578104456506 17.42165343769522 16.56892813692566
Cd 15.351036183447908 20.394432579589964 16.957265890729936
Cd 16.278887859268597 14.758313566418758 17.410521416720524
Cd 19.79282045176318 17.97673365487741 16.48798999995917
Cd 10.746085074592056 15.988106594224444 18.09642702769947
Cd 19.234934423392183 13.064452611645248 17.713523872043744
Cd 16.4827375720831 11.93452233340725 18.78492998505259
Cd 13.452393110170929 11.99577002497702 19.113499949958843
Cd 19.206177536481352 16.055027076396957 18.73810814387145
Cd 14.444118525750069 18.639193881640654 19.418656978742757
Cd 15.13977130183168 13.757873773236474 20.798649278547252
Cd 16.37546552076076 16.40219872274177 20.059153982400847
Cd 13.506095889468668 15.63900878098979 19.143938216352893
Cd 16.91554548321519 17.877737959875883 17.53159443698501
Cd 18.137351314887688 13.843583109017516 20.49642023189688
