40
Energy = -15.63282138 eV
Cd 14.563892178710903 17.363683810414706 10.082948425556175
Cd 16.28452335272158 15.015380496885474 9.348293689834192
Cd 11.952942110279322 15.73639532910852 10.61654286623093
Cd 17.423488940118393 18.506732383390265 9.433666190977043
Cd 16.260823670675634 12.175672011990423 10.138175959328434
Cd 13.401017697381338 13.279009780557464 9.977381344652837
Cd 12.53597013736795 11.21040986112029 11.789462667678025
Cd 15.484027683784518 11.764833071808853 12.916910769817973
Cd 10.185494222079049 19.07724045267473 13.659117896931344
Cd 14.621774288280463 14.800102034210814 12.362520149119074
Cd 12.283055395865066 18.674552780889606 11.488178372717263
Cd 17.29748156012094 14.165838893935748 13.719761916690183
Cd 17.264951905264027 16.5518677519527 11.868077287057252
Cd 9.5455489639459 16.508959066772398 12.370741124227319
Cd 10.215351345673565 10.865881584568738 13.69238721488578
Cd 17.371092346346714 17.185403693384025 14.909272146870233
Cd 13.047777080826364 13.188158164814112 14.35457662414534
Cd 10.615250820661345 13.692568296574724 12.555134796001948
Cd 15.916539122131116 9.757082562109423 15.240605931031386
Cd 12.945452202808623 19.953893177119397 14.2396287101523
Cd 13.127730393915582 10.075273363602673 14.511449884524952
Cd 15.878220133576859 12.770026304916307 15.947067878158192
Cd 14.656607032744423 15.523174309721332 15.540948397758788
Cd 14.83419098767632 17.801122885320794 13.279531020690083
Cd 12.255732728262252 16.127139534405227 13.848694213435408
Cd 9.839535231973407 13.192620867139256 15.567616312004718
Cd 16.61941735197284 17.18825672637094 18.011375788798823
Cd 17.82139088930134 10.448964439548286 17.274796644218814
Cd 11.06629536247117 10.573822625001137 16.64215137491903
Cd 17.977464971330296 14.87992937754615 16.69687320358545
Cd 15.296399296410383 14.544088004096901 18.60728376388074
Cd 14.865706894571698 18.723267003226034 16.161345181404112
Cd 20.02587356880965 12.67285203554423 17.31509330212013
Cd 13.572347296448056 16.90460105419502 18.260180235530694
Cd 20.22130072542961 9.463076394839714 18.98363757049158
Cd 13.137994180207377 12.709911451155548 17.3504092559766
Cd 11.50822194200136 15.221323787956388 16.752407231178672
Cd 11.709434221658801 18.078146594038035 16.200524811468295
Cd 17.420191704974627 12.713321837775322 19.23034445687098
Cd 20.26722660584824 12.233152743944279 20.372621933705535
