43
Energy = -18.35321969 eV
Cd 17.423977339265992 13.862793157495483 10.037251537251034
Cd 16.399229729580714 18.744192563877682 11.858725532331139
Cd 14.481363339027308 13.394611513830707 9.746146500795028
Cd 16.23596951303527 11.187862251384459 10.84559205272959
Cd 12.607873648036458 15.028878191995323 11.408940609662887
Cd 15.237676364340585 16.281715337686972 10.34997067486015
Cd 13.503253240258253 18.758188199046725 11.119119774343831
Cd 9.56574409102973 14.776913969703667 11.17029966159287
Cd 14.694916091381616 9.000026727119302 12.154779814808546
Cd 17.261116862101353 13.38480226624115 13.021512619777146
Cd 12.907043656329192 11.05121272169269 10.59765337844714
Cd 17.936909774264393 18.087855167776294 14.26562678092883
Cd 10.313668988891095 11.959074970610953 11.672280914104402
Cd 10.978075071356566 17.58902263254075 11.858403232086486
Cd 18.013151297229676 16.185019265627744 11.842649101400603
Cd 15.077036287469403 15.619794385443551 13.355361099059607
Cd 11.87889408277857 9.656752876394675 13.079264052142687
Cd 16.311213398640973 10.55980364622458 14.068315817712266
Cd 11.511801828852716 13.72704185507947 13.971954525759466
Cd 8.786541524225111 16.4540839182215 13.497986332127207
Cd 14.280928918948884 12.82362111119821 12.920869921256228
Cd 8.304856649017077 13.170482682326751 13.761975644975283
Cd 13.164048011154387 11.206945530680136 15.214169602194897
Cd 11.82845363246811 16.682635424754398 14.566428887115878
Cd 14.479855963186642 18.45073461514455 14.267235365296626
Cd 18.544911321544394 12.207888572808999 15.508388140115796
Cd 15.661460813529624 11.923870913740789 16.581122097020554
Cd 19.43689426017886 15.385107928460801 14.325856995502095
Cd 9.385655852644042 15.02179080067448 15.95225637871087
Cd 19.761687196830824 14.377736881335258 17.07832224419512
Cd 9.636350255331159 10.652962343432298 14.759567564499916
Cd 13.777927526731116 14.307332088481377 15.789971759163288
Cd 11.615756959735679 15.47329534977573 17.687792877429995
Cd 19.386463884074796 17.439021013568578 16.857272122130748
Cd 16.620329137524188 14.799667015428613 15.792071875711509
Cd 16.276911155885514 17.742835719742303 16.7641831128543
Cd 18.302897477705162 12.623454106279675 18.962418192569636
Cd 15.489602751594601 12.417853043617535 19.496799390475424
Cd 13.355536767369856 17.703743823016385 16.96488524374937
Cd 10.868386317157 12.405453110761695 16.86877588621568
Cd 12.740150650287779 13.045958566719607 19.01025487501199
Cd 17.572865604183548 15.665493278410388 18.631216894717895
Cd 14.65859130139287 15.438448998219016 18.59230945373627
