40
Energy = -15.02105787 eV
Cd 15.335830722181262 12.781604976989229 7.719659099137449
Cd 14.247649003839996 15.287926025085296 8.985329905246592
Cd 13.65246580742359 12.455410240116917 10.735319959049557
Cd 11.968175105379984 10.008989627797252 12.04043018555429
Cd 14.619260483938636 9.438006295361593 10.83642402828576
Cd 16.536892023477762 14.564731758144855 10.897982371992315
Cd 12.283192932968594 12.675552811992011 13.462342246451954
Cd 16.670163405011593 11.617360536600934 10.200806873995251
Cd 14.527641237522033 16.877165316405062 11.492954012557954
Cd 12.153977276211089 14.959435092943323 11.231537594291533
Cd 10.894341407939065 17.062171415310395 12.736009074025828
Cd 14.269365173786968 21.917257516494963 13.39013869945221
Cd 15.519274767586937 19.009440810094404 13.38539361908496
Cd 16.779443195018725 10.219421980988733 12.793183642864742
Cd 16.584314245745666 15.955923537567065 13.520680861220232
Cd 13.985084012434026 10.055285862120696 14.3377487209171
Cd 12.694649264880297 19.424590437359683 12.247504462846416
Cd 15.485760893187576 13.005904723436542 13.400265592080114
Cd 13.400267626094582 15.412374521350248 14.080074827706738
Cd 14.531424130785425 20.52374777459266 16.07305647060198
Cd 10.160092088626035 19.47920710648135 14.216052666244714
Cd 11.827691461542718 21.605876101780563 15.405550511392482
Cd 11.993777641989151 9.863971655511477 16.645941229813253
Cd 15.61706226637179 17.490485338985298 16.04018701446892
Cd 18.677336391588163 12.923172062728144 16.893809945018887
Cd 18.139960739672176 15.803653574762997 16.052999069421563
Cd 16.643151672990566 11.014129270587249 15.580657569752784
Cd 12.258860999534413 13.094243824482497 16.475203507114287
Cd 12.518429760464237 18.04585532657159 15.433727978652943
Cd 18.466070825663643 17.632654465881618 18.475987698299818
Cd 16.348872315083877 19.65698262385976 18.14904069614296
Cd 15.602936253927902 13.94674932069496 16.378912712004688
Cd 18.868916913368377 12.336783602856269 20.17558260901844
Cd 17.58672287082515 14.802460699088767 19.069323156148275
Cd 14.363945502324475 11.275371894479447 17.825433822450574
Cd 17.20173699064315 10.485645986037976 18.46369255966391
Cd 13.282122070890816 15.873841765811653 17.22632349471943
Cd 15.363687176145797 17.059858053823348 19.35564661201254
Cd 14.682360955409298 14.09884496007814 19.286727391689006
Cd 15.788072883984773 11.788891601204206 20.81333800506639
