45
Energy = -18.52186329 eV
Cd 16.949322887340344 14.103088970405109 10.163183161247819
Cd 10.112253447098063 11.922257345878226 11.659824229334665
Cd 11.224128590905497 13.800669017905918 8.187335358206399
Cd 9.394384616632978 15.125337131392223 10.061691703814509
Cd 13.543986915083279 18.183537549480757 12.34998599532754
Cd 12.206899976327483 16.39048736044411 10.294242154168783
Cd 14.097187516076389 14.05451466836036 9.40510097813776
Cd 13.495369169871681 9.65854174834043 11.440128474408004
Cd 15.386246102157767 16.532327579879755 10.683887255568171
Cd 17.819292532151454 15.35013891688784 12.811595258778386
Cd 12.379194465527823 11.535988995263127 9.62635091424551
Cd 18.185764712176876 11.871161794882116 11.573682517571068
Cd 12.460456577983953 13.756947008421193 11.94678498902044
Cd 15.131126065114712 12.19758210963602 12.139331609784087
Cd 9.15749022686938 14.572507370244162 12.860592525815468
Cd 11.541385753499187 16.269353284879237 13.368805234245258
Cd 20.41078234801042 15.599634658179578 14.763673127588373
Cd 14.702796676195147 15.094178420557109 13.381998950714468
Cd 16.581746170810813 18.375000733706717 12.622746701660372
Cd 11.439905725472762 9.958147594014193 13.681705188752321
Cd 14.411670047720062 9.918981086982086 14.196129175754022
Cd 20.275218067994352 13.04590879906738 13.139453647091234
Cd 14.860513491785651 18.021658197224646 15.105925440749438
Cd 11.935724261234794 18.964630010119517 14.87015385765751
Cd 18.512181848207664 17.80183097669238 14.678557104458768
Cd 12.994120452521681 12.663557115622536 14.583230215185173
Cd 16.88278151298646 12.706410980510705 14.510280227199571
Cd 13.17495030992759 15.601630053617978 15.9823307372486
Cd 16.524491570457787 15.60057995460505 15.721347443831542
Cd 9.752181019478792 15.248333699165045 15.710893447744958
Cd 10.551344788760412 17.724383008412705 17.144745741498117
Cd 18.112284323288897 19.130173829194266 17.24997667987711
Cd 14.889675299642636 13.234384396958252 16.723587996822587
Cd 12.986385961581364 11.094286945099409 18.46797407581927
Cd 9.840841112673871 12.275797040981402 14.73252255053026
Cd 19.5659048851005 13.029841342639815 15.994503124700442
Cd 15.261629028391491 9.994023187988088 16.90896521632987
Cd 15.327582237983997 18.43376706769846 18.024219733515448
Cd 11.423754567873587 13.172090809062176 17.12844786837485
Cd 18.004333187299572 14.367079509724414 18.091181291370564
Cd 15.627744568758345 15.663939021853892 19.17726410919431
Cd 17.753174887059444 11.277062168615569 17.440585023443408
Cd 13.019956204927993 13.945640925166998 19.55692489632423
Cd 12.864515811826182 16.83803089035997 18.807146935492526
Cd 15.757383757410398 12.424640404079085 19.561070811598047
