46
Energy = -20.74623252 eV
Cd 12.282972537983701 13.096385422676134 6.220226886707669
Cd 8.615883306873732 8.938956354376959 6.8928410491735495
Cd 9.608869775485964 14.16759511907364 7.236428330141749
Cd 12.703060432076533 10.09082786953446 5.998447822551406
Cd 7.632111376896223 11.873046809355799 7.55556740973113
Cd 14.373001386095481 14.030779580503163 8.030415437169866
Cd 9.936238934028776 11.336806210623347 5.826145338848253
Cd 10.498333712104643 15.795573096392259 9.69929868541351
Cd 11.383819623857732 7.573883106622108 6.84174826069433
Cd 14.173905208312998 8.37082797964656 8.011807590635526
Cd 6.519427928315563 9.427988051279971 8.916852909949466
Cd 14.912018438583026 7.873124330289176 10.830391788431001
Cd 9.211472428950097 6.53538186170295 8.52768763755762
Cd 7.527072645952649 14.620106039652152 9.350615875505005
Cd 12.200299997036902 6.807191181628787 9.594396166565714
Cd 15.129985359378626 11.191181965535883 7.627059356452048
Cd 5.828337256995006 12.19729830562792 9.874362264646415
Cd 9.181493828527216 12.11976440664368 10.384562367185527
Cd 13.48010027220635 15.406272662902463 10.473420376264455
Cd 11.72887909640004 13.073984016354752 9.214931949093351
Cd 11.062041192604983 10.197994201919558 8.693515005780434
Cd 6.34362966227343 10.070052060494856 11.960595682377983
Cd 15.633394904055228 12.852783195292577 10.480537056644572
Cd 6.991823413914401 6.983776478350671 10.494322622954309
Cd 15.848325885867357 10.490863562110642 12.255360507461555
Cd 7.051576529513368 11.217212439859196 14.878615979149107
Cd 9.284566037361284 9.099131417247479 10.669535981403
Cd 13.601881856365772 10.659905105701407 10.15922785970898
Cd 11.899228173066742 12.399642582759249 12.07929069062432
Cd 9.582004365101332 10.937550934842367 13.057561680191336
Cd 14.537490420931656 13.876179085305765 13.028864025724046
Cd 7.565489188641825 7.7489343598590885 13.311049192932018
Cd 11.899773700148703 9.308852767061211 12.130958610521725
Cd 8.766149202706776 15.049855773760598 11.990236913303493
Cd 13.777007135596913 11.2582154852352 14.39977297948682
Cd 9.894548301875654 5.967324134032609 11.352882432772825
Cd 11.533940593421462 15.487324624065984 12.704101969321297
Cd 6.821342297566074 12.995146779836922 12.546021184920784
Cd 14.448609163969605 8.340044432592546 13.801904783734866
Cd 12.806047801635815 6.243090169133489 12.436489839461299
Cd 10.397106146327584 7.109130817932473 13.966751505103606
Cd 10.84042389135986 11.588272483595935 15.929512545325325
Cd 9.002666184180057 9.171120455172504 15.604170749770278
Cd 12.338086098563211 13.906200729896938 15.0468576325657
Cd 9.216630706818192 13.745770292001886 14.590675705629822
Cd 12.115166921863056 8.954884583306987 15.510212682203397
