49
Energy = -20.99463449 eV
Cd 16.150918689623932 15.217766091925562 10.719798037835998
Cd 10.491300507969493 14.544150846856224 9.24651985731168
Cd 13.398509732327796 15.265046554809082 9.478935817922302
Cd 12.467557243065338 12.232812514702893 9.325547475584164
Cd 14.669609315005065 17.847485061083173 10.13175125770625
Cd 15.144033182259635 12.426790125777796 10.642470816188665
Cd 18.385276297714054 15.789274089122664 12.650454995598947
Cd 9.884777015922616 14.938720023497313 12.129625154596145
Cd 12.83335517488397 14.231411483648383 12.212985453045372
Cd 17.51619170043606 12.898247977249646 12.4767230210967
Cd 9.85800962275481 11.902530049558862 10.83348736311141
Cd 12.118382163891015 17.18962844218187 11.884631670684968
Cd 19.18940842178718 18.43103864792708 14.163857847258688
Cd 13.011311253131613 11.02544080868599 12.198150052248154
Cd 16.300466460250348 10.165219387033645 12.371783228259009
Cd 10.806460276713002 12.403301990582674 13.684353159160098
Cd 9.775370598321398 17.22719119481779 13.955239405256988
Cd 14.910224703094023 13.250299825912286 13.970485163789329
Cd 17.02824276810928 18.372690128895794 11.83265863024593
Cd 14.141889584426595 19.301824617162712 12.6972022719188
Cd 14.917472610109128 16.234108598227657 13.431275873356892
Cd 20.67491064414656 15.967295122293551 14.837111128203256
Cd 19.96750185204072 13.231287025625061 14.016933178281889
Cd 16.3968895494535 19.494738621080955 14.52853931900125
Cd 17.101089104870905 15.894683275445294 15.351756440600683
Cd 17.29309729781197 12.906731855984718 15.701927256697854
Cd 14.760568971218097 14.547776865198587 16.74368644312869
Cd 9.349723716530121 14.425289540452225 15.231976392541318
Cd 12.435015025841729 15.320719124420448 15.035745213969623
Cd 17.234195143535402 9.921623413767504 15.17201117337741
Cd 14.267901381894308 10.271058215964462 14.75829084592456
Cd 14.797707300845559 17.68576387142969 16.371439471699055
Cd 12.343330266766186 18.510182732737615 14.944993074971595
Cd 12.574559424900908 12.336109180025582 16.12192670064944
Cd 10.075969288450844 16.863647703671948 16.971936470820456
Cd 19.789223736984084 10.622417950160944 16.455223247984197
Cd 15.290223441373596 11.179100418469112 17.447747394753364
Cd 19.26932813740311 16.381866843914104 17.4451202060049
Cd 17.446510681467142 14.18844244966277 18.45379058760518
Cd 10.640071759442979 14.079851781554668 17.869577341268915
Cd 17.988747248399463 19.013396259077176 16.937665446069435
Cd 20.107711388426228 13.521196813866535 17.038967532530677
Cd 9.803248677217582 19.76436893636691 16.156613796443523
Cd 12.672187057962836 16.4370638521653 18.262580383219625
Cd 15.738803226685258 12.428023868476465 20.034645240054743
Cd 14.745703995673074 15.312262253881062 20.107436513423874
Cd 13.004404443858888 12.989372916339532 19.138987821882672
Cd 16.98197880417975 11.010586767541712 22.35188100277947
Cd 16.58627598692533 17.1358087568683 18.809198700038145
