49
Energy = -21.38614395 eV
Cd 17.95470756167749 16.16369539942596 12.57291126436099
Cd 16.88292305012452 14.13514036528503 10.702628098618353
Cd 12.559718216539546 15.705819767265533 13.40016981709782
Cd 15.096374461876588 16.484525377453572 11.717908538851152
Cd 13.983748966997211 13.554297140877049 12.088974785236976
Cd 18.512902457157725 13.250544406020943 13.366657283060274
Cd 11.192301517218633 12.762930541187218 13.429127644066138
Cd 19.92120288519156 18.247834530997824 12.814349583384919
Cd 21.300899923058008 20.389206990424725 14.339298528189206
Cd 16.26975419122822 11.697429361978443 12.178020043973326
Cd 18.017664917460593 20.43290566622739 13.88670140143892
Cd 13.739523782119013 18.496314705029157 13.440140287916545
Cd 13.716533715282214 11.010698471668007 13.711456293172189
Cd 19.980841164406783 15.432012096207213 14.758297264725876
Cd 15.849398791722026 14.734316142450563 14.39196395227361
Cd 13.276942804173657 13.671399262408901 15.74677528078056
Cd 9.784975158021991 15.117752094523206 14.533183678285729
Cd 11.377926068397107 10.497831450265641 15.407358302795197
Cd 19.61419471179266 22.159538756425775 15.898828331845857
Cd 15.366132712783338 21.471845915793185 14.868908499367693
Cd 18.981968687019158 18.53458988927107 16.201140299964617
Cd 22.03327375607304 17.514716435456226 15.000260682417261
Cd 16.42759707345394 17.964583974815596 14.55209727297561
Cd 11.069501834384528 17.800540113297487 15.040786301953775
Cd 10.179745187958535 13.024710026395065 16.681307481906412
Cd 15.701133085049655 13.694107735551782 17.608894120141528
Cd 11.65410098290928 11.086576967238154 18.32565526041917
Cd 20.66238061241879 16.367430232602647 17.542865129515043
Cd 12.753637209046277 20.257078090667154 15.539994000366738
Cd 12.062029830122023 18.542893040960724 17.837745599203206
Cd 12.788733389831219 13.91256693308301 18.878223659479698
Cd 16.357867165855165 11.78317919502286 15.119988375960085
Cd 18.634356077876895 13.20880624424911 16.396986495998075
Cd 17.153056606398223 21.023184476383783 17.176006511149954
Cd 19.649144682211702 21.199634743827293 18.82334937464263
Cd 14.16215734455009 16.569311088393267 16.00186649100212
Cd 11.115842699228796 15.790542092624424 17.331916863676508
Cd 17.312983845926045 16.04457851300903 16.829379486994462
Cd 14.204219018010694 10.77499326375155 16.770975320009057
Cd 22.08049169450474 19.551962578562232 17.175215011235924
Cd 14.313411034322941 11.422552177821892 19.697374414394428
Cd 19.449328604176156 16.481012938873647 20.250992215951513
Cd 14.982753831312067 19.10021227631445 17.509607288185208
Cd 17.551198376399814 18.4842269283515 18.931285982944697
Cd 19.074914021197163 13.781869339474285 19.151120634696298
Cd 21.047302912239868 18.82141500598192 19.80950413508166
Cd 16.587550245774146 15.663460439747137 20.036415721399923
Cd 14.090566471227259 16.648877721705034 19.07818335691084
Cd 16.712242099022784 12.726504530383156 20.639359067711695
