40
Energy = -16.20005568 eV
Cd 16.824623588194644 13.693904636177477 11.600036815331364
Cd 15.058080603199425 18.4624579078578 10.767615155559694
Cd 14.753942576297213 15.491387496136971 10.402208214121584
Cd 13.883210035198205 12.753860257572088 11.511969176666486
Cd 17.561852842273602 16.74777251146242 11.388034388575857
Cd 19.015355049272507 11.819562770613594 12.84886201969979
Cd 19.255135056626145 18.318476688411298 13.411062660671822
Cd 21.754790450668626 16.870349328899263 12.774003516871568
Cd 14.51252926359856 13.951904359720784 14.39097054125982
Cd 11.403356983832344 12.773594306317074 13.751718982732198
Cd 15.00260586925844 16.792678452073556 13.432500934509003
Cd 12.467374024062625 15.404173706606745 12.392668760741548
Cd 13.754924311272738 20.18949545174877 12.85419991264517
Cd 19.72558319272732 14.724649366582142 12.211680477817664
Cd 16.206816493181023 11.12232911208039 13.266273719487588
Cd 11.204656341986801 15.391310963949685 15.12565871006513
Cd 13.321519422108162 10.511471357103549 13.438524964677702
Cd 16.629760228502636 19.534708020035144 13.447575524279094
Cd 12.187814707526162 17.98703589568485 14.034868731504224
Cd 14.683756160830868 19.292374545836083 15.800586263813942
Cd 14.766017311029078 11.365819238522704 16.039366824780394
Cd 20.104760892344448 16.31570253690234 15.551977481358715
Cd 13.139674396317536 13.987498698556132 17.02135145610902
Cd 15.114909721606216 16.167563132675422 16.38928510040213
Cd 9.469189531040628 13.09890216853596 16.088035157870372
Cd 12.385670633485823 17.35660381125881 17.014794884201358
Cd 17.32277743232722 15.127379307376863 14.330752845454148
Cd 17.69941990409677 12.342908671969367 15.755442252064995
Cd 16.101847875965586 18.675336646170905 18.549632555535887
Cd 11.774755496349593 11.040591099766893 16.133665005766304
Cd 16.135178096666657 12.9801080786292 18.188555087089313
Cd 17.681213854673736 18.16474420552489 16.08490914234872
Cd 20.376523646550652 13.45203181939427 14.904012583282249
Cd 11.568323549630893 11.995902822134937 18.941271457289425
Cd 13.50967716432613 17.85696753832307 19.657626296454797
Cd 9.370306257432643 14.21472090222723 18.81875298494258
Cd 15.498276362336696 15.635651389670432 19.48971603410572
Cd 12.015046657080529 15.276930339606801 19.744988568836025
Cd 17.933644645490627 15.264169610529693 17.400543820003136
Cd 14.023181092581943 13.045052569303161 20.24238271302238
