45
Energy = -18.53719851 eV
Cd 13.577811695413615 17.9000358752628 9.955618049329878
Cd 11.465688503941685 17.06945778274079 11.918511140325656
Cd 17.86855316676207 11.310324090738957 10.640179216732308
Cd 20.779712963112885 15.221734417142272 13.117036636079723
Cd 16.124202937387672 16.54248237924901 10.902794327267896
Cd 15.525769829768107 13.112994163857309 10.415316949671505
Cd 18.195444980218667 14.439618080009177 11.248836216863815
Cd 13.345264038031084 14.967480522543111 10.76557848199497
Cd 14.131931677805406 19.047920952971296 12.71569261762152
Cd 19.9304876021192 12.364015291821488 12.578116241563995
Cd 15.733556194736805 12.936088362350501 13.479048562532324
Cd 17.915950057614285 10.127661405800968 13.415900415612672
Cd 10.210416553553769 15.082078074285738 13.827980856908235
Cd 17.074275497285758 18.794041265965156 12.73833007300902
Cd 15.241749461157399 10.274714184486431 11.898702522473473
Cd 12.62232490482899 13.291426079245483 13.277283095962444
Cd 19.572984348176558 17.74356392409926 14.312039877624667
Cd 14.334208617325281 15.86560026485449 13.530603144080017
Cd 17.250362376298067 15.725373925630167 13.866334438998297
Cd 17.753723818670696 19.838960440912512 15.439945426513528
Cd 12.16128245151113 17.761217421366712 14.677916561389035
Cd 18.434305233791704 12.859480756472914 15.058494900363138
Cd 12.924293051115727 10.10916013697416 13.669133507747867
Cd 9.90234701943217 16.624458111966423 16.546249537802183
Cd 12.635395724785075 14.996238538108772 15.988879711473983
Cd 15.169285675846991 17.996772836370294 15.45087769572569
Cd 19.940923460102855 15.238211200092493 16.097754667963663
Cd 13.505142537684309 11.926748026734478 15.962196149562823
Cd 16.478926429992622 10.837912272034508 15.859880745913856
Cd 17.575182332155137 16.873814581119838 16.86119144133428
Cd 12.639451498345032 18.90247146574006 17.357635050245545
Cd 15.644976865935295 14.388939359421276 16.077497359667266
Cd 11.38060289512386 16.618607844010732 19.062635255398263
Cd 15.143350124245098 20.709141254448667 16.87595543288956
Cd 14.573314639570281 16.379606442925887 18.055231623040264
Cd 12.836357298439514 13.508658856086367 18.533737586635066
Cd 18.076953435412403 13.734914877244629 17.95472029513146
Cd 15.311170736214487 11.55628660104987 18.379917836304077
Cd 17.626002148262035 19.599122423590476 18.388550933247917
Cd 14.806963125912075 19.14131432185708 19.453292592028266
Cd 15.750322770891257 14.055157518293116 19.78872750232387
Cd 13.109729018073873 15.16643290968976 20.976805814641136
Cd 17.079643201934584 16.93684067650681 19.799474723279175
Cd 13.863694803187153 17.86622434055913 21.88520013418476
Cd 15.910698412171929 15.691429857714251 22.32892876488772
