44
Energy = -19.47724079 eV
Cd 9.39300218947706 9.640105191478419 7.5649446345502955
Cd 9.74457647740402 12.514374934192555 7.878935912563114
Cd 7.448390829501777 11.161909103459724 9.422818984801433
Cd 12.73172107828309 13.737927484181931 7.5772210402381495
Cd 12.169094399582768 10.740483926547162 8.163102268303128
Cd 10.275349690983882 15.313372515969233 8.262039119608481
Cd 14.909612520263238 11.87868487665783 8.716419330708685
Cd 11.482275767284326 7.802825977594028 8.559813408792918
Cd 12.640545701527452 16.6894435845931 9.334265133501551
Cd 8.27360529150204 7.939278216987357 9.66605044204372
Cd 14.508466811887745 8.756656207839384 8.575072097398039
Cd 10.198750551052251 10.89542687117958 10.932944561052912
Cd 6.652912796806424 12.58150621940817 11.99697049011502
Cd 8.241047772329557 14.114043573128797 10.047747961386783
Cd 11.895295777318417 13.302400104727043 10.580135230382949
Cd 14.71832204151658 14.699554121502157 9.68997056872415
Cd 16.591258058373455 10.079767879507338 10.39607341078299
Cd 13.184566871475669 10.352951039922264 11.178592855912015
Cd 16.78079949119715 12.990580850932435 11.018513502913544
Cd 10.23842794830654 16.29939269797441 11.103818364945104
Cd 16.017931954969704 15.83551294788952 12.039564718145296
Cd 13.678011991634673 6.954184175534832 10.727851635504921
Cd 7.451444658436042 9.483522539435533 12.03802118477943
Cd 16.650182930932612 10.992034360989615 13.387537111453453
Cd 10.657499128898829 7.815908824287773 11.418445983179012
Cd 15.513465650333554 8.432226598870628 12.577127594285482
Cd 9.843684124795153 13.373621662137207 12.767285700602837
Cd 14.049506041313661 12.763783481520592 12.6071910172038
Cd 12.94199501754199 15.858878288911013 12.289609092935734
Cd 14.83984959014813 15.553757579017397 14.805191187029212
Cd 17.151989355798282 13.793856388982173 13.952366205451149
Cd 7.175544844584664 14.23950970736797 14.691419081014674
Cd 11.71507249414844 11.186721990294785 13.695859901718075
Cd 7.761664120548657 16.102477002145243 12.568089691918333
Cd 7.874638883608002 11.313852526823014 14.4201971420641
Cd 9.685898337796996 8.932642034956903 14.008909913900746
Cd 12.751388174836734 7.914745006302542 13.477255215275434
Cd 14.494733741760164 9.944535992343923 15.097906993118988
Cd 12.182934956691815 14.130610043946977 14.721658395990529
Cd 9.672396476847249 13.424569807237976 16.04412003797444
Cd 15.099832891712285 12.728555268399743 15.902370963638269
Cd 11.98825474984613 8.79621697426702 16.166099711180987
Cd 9.729628980287359 10.54357811241213 16.588774651581954
Cd 12.446955097136557 11.846539568825756 16.794223812009985
