46
Energy = -20.87666714 eV
Cd 13.281974386047516 11.009963238959305 7.266444121446301
Cd 9.718751728769385 14.458207245929612 12.764555406265355
Cd 6.152780824532466 9.643417866400583 10.301948412744512
Cd 6.932301724331648 8.184055494402708 12.813062429208857
Cd 9.106452029302941 6.259293778843553 12.936399674944072
Cd 13.602646421264627 11.295061586582204 15.855539484251654
Cd 6.54563865997595 13.846528844648525 10.33650787057856
Cd 11.650893461362271 13.595923725162772 15.50455501506992
Cd 12.927846935160572 8.073320999553923 6.918987273382042
Cd 12.59857365784747 7.591954593435734 9.866781423472863
Cd 15.268199255586529 10.530446033465916 13.494512351268927
Cd 10.414463227563719 9.043373663729687 11.744692862499464
Cd 9.106860580894256 13.301251392484998 8.582730815045917
Cd 14.0486763581737 13.264483226711166 13.59664993536373
Cd 15.68928860352683 11.709908181677145 8.705418913206222
Cd 10.265245339563618 7.177391809993983 7.8716766043938495
Cd 10.762715721607902 10.604386161891991 16.15108213114674
Cd 12.164721285131359 6.472693023001608 12.767792803416667
Cd 6.923333422103485 13.686148910357119 13.185650022017432
Cd 14.719498423422095 7.879843307370501 11.982514494977677
Cd 11.270779226849314 12.969363135901709 6.39762503799428
Cd 8.599165512994634 10.169884364545084 14.16568790507551
Cd 14.080294680366942 14.943601547569594 10.932530488053859
Cd 12.355686172015604 15.638611924675441 13.459568348317235
Cd 15.931541819223604 12.760884060741077 11.42847792205882
Cd 10.761637279382885 10.41856139346776 9.070998941118102
Cd 8.825710342043559 15.73456880458896 10.249675622692072
Cd 11.578062909298408 16.566822133072353 10.797931601760958
Cd 13.218652689047842 10.620584770778127 10.863123883093362
Cd 16.667355261078093 9.915641494383785 10.94990797379483
Cd 11.122321988720493 15.470641925857407 8.063709003716966
Cd 8.801545221785927 12.864386672768632 15.291642908403237
Cd 10.563969115141772 5.548284600769522 10.38985222862832
Cd 8.611118528275991 11.632659936625348 6.171319682273811
Cd 10.731853608477705 9.683546105729386 5.925454287274165
Cd 8.148426183536866 7.3336690828201485 10.172760558207349
Cd 15.105340798833256 8.699285934686497 8.7820331012856
Cd 11.5543765386859 13.092337102592449 10.49411894576046
Cd 13.677047842307523 13.863111053226495 8.170679981993148
Cd 8.798944844941488 11.563009298088323 11.21474153071566
Cd 5.919386742495175 10.980713929226702 12.983026843293727
Cd 10.223798316151886 7.849096766298568 15.122470324123265
Cd 12.904590303299454 8.872922218322406 14.257343755544136
Cd 11.364961055009854 11.56025593195457 13.06792651018111
Cd 8.076677727729171 9.203687865671853 7.900942745197975
Cd 6.5572235234789735 11.747545138375255 8.360278102080983
