43
Energy = -17.11990221 eV
Cd 16.74319737875863 14.227043082423489 8.911234740042627
Cd 19.275977528482493 13.667937970339624 10.531376323400941
Cd 18.844789298482315 9.314717962218822 11.245593791280289
Cd 14.21395502293431 13.247613174742844 10.68428741690369
Cd 18.53573931996073 16.50844745497579 10.574609125006432
Cd 16.75558510104733 11.671696752455892 10.65340280402699
Cd 16.685726174907575 18.89869566311057 10.94655255293156
Cd 17.45280643477045 14.8455125537621 13.06476295276137
Cd 15.421883915583289 16.173169335124854 10.798242912088595
Cd 18.79079469367014 12.001005780061492 12.881542643235681
Cd 12.20703734191388 17.184535536306793 14.454405840330264
Cd 17.060175987124616 20.164746476561138 13.576854817833961
Cd 19.062061533968393 17.78625577810002 13.231184088872778
Cd 15.518803616235767 12.379486609448257 13.514164640869527
Cd 13.978674686647137 18.266512108877745 12.22762776979405
Cd 13.394927107060957 15.081833782078727 16.23185457374251
Cd 16.200792609778187 17.298608169478936 14.317523170379097
Cd 17.956708770487023 12.633039641178236 15.552962491387579
Cd 14.236109043019514 15.096493608173084 13.368445800390266
Cd 18.283590528946625 19.40787843204596 17.781873705398063
Cd 15.0338143707176 12.21175330993032 16.485201633381255
Cd 13.96208686648884 19.62056315672746 14.914628981170843
Cd 13.014722572034954 13.24659482248399 18.48770766921471
Cd 16.57198826416994 21.345109485936785 16.114842447039653
Cd 13.4593698614276 21.474273943505942 17.085567247452847
Cd 12.638710846729746 17.820458167172546 17.305496580802068
Cd 15.630434511158915 18.10001935147613 17.09205525357068
Cd 16.52687992706206 15.131580625560634 16.347362635331034
Cd 19.251955273975476 17.23255629804919 16.087704354771358
Cd 15.795850911831941 21.092604396633863 18.93036892665981
Cd 18.790301206168465 12.03587673895444 18.207837108300488
Cd 13.011234780407294 19.79940283217249 19.467591244993116
Cd 16.426936850289707 18.535729347523386 20.197762114713324
Cd 18.50619773152484 15.812118850685048 18.524882148830027
Cd 15.318876003516236 15.933205491983589 19.062690990581963
Cd 12.3446720690268 16.645927767149495 20.027360731668615
Cd 13.74757721718756 14.234447550060503 21.21473101602355
Cd 16.02431979375568 12.882683526436828 19.30292339801182
Cd 13.34287901708092 18.877175156760078 22.18145381905855
Cd 15.186683706501817 16.681702376693483 22.413271761762054
Cd 18.77248013487597 13.574530196749373 20.674138036779485
Cd 16.427011523199113 13.92835575390485 22.367226569650676
Cd 18.100679451447206 16.43309996634578 21.46369215391748
