43
Energy = -17.21412359 eV
Cd 13.632500601682803 14.280253664735787 9.47700058587896
Cd 13.79988758161826 11.527163163590865 10.482431401606249
Cd 15.178059182339128 16.662531385557084 10.184838939476023
Cd 17.918989396770257 17.232627989211057 9.359780837066511
Cd 11.297934550567568 13.6068037770516 11.08650845566621
Cd 13.156296196361122 8.887957422069878 11.672040228748015
Cd 19.186955818825226 19.23698410761922 11.372655098495406
Cd 19.585393659710075 15.006461986831118 10.378568054338382
Cd 10.556362585744202 15.733887192723536 13.95519690634781
Cd 13.32015666863007 12.62285086094339 13.336878065781658
Cd 14.721761609100222 18.778177163035398 12.15411324833291
Cd 9.42178333659266 11.349934343247423 10.183284955151834
Cd 12.585068969048656 18.25103245554458 14.18003450452947
Cd 16.21303270265465 11.377539208692811 12.770676044042917
Cd 10.873543122861669 10.35986216245683 12.723591829252948
Cd 17.1555383866452 19.446818302028134 13.755575925540427
Cd 15.122131330864306 8.786361569266873 13.823989819232748
Cd 13.153988087954554 15.727822261481279 12.471697697214294
Cd 17.440475595149778 16.65857524332783 12.479290359713078
Cd 18.53546718182557 13.36609115880353 12.556524685763577
Cd 15.72848127977371 14.141535207350243 11.7796538656012
Cd 9.290274726543025 12.928342993606284 13.138430268864722
Cd 14.403818681472746 10.815658265254237 15.78713481797377
Cd 18.27633625236795 15.264730102089 14.934439424863102
Cd 18.3143924842117 11.993200910292693 15.139016189717392
Cd 11.380261104968573 11.487385043786157 15.440254259070121
Cd 15.235207284022751 16.548583017398947 14.683568142694355
Cd 15.566977509630153 13.651102868793279 15.206643893919036
Cd 11.726252969376551 17.08482520435521 16.80510442811882
Cd 14.245618911589192 18.894305438463622 16.72262825496769
Cd 17.157202802334975 19.17402235281112 16.646686052609848
Cd 16.681669533184568 11.661860326845192 17.659071735001273
Cd 9.206030213292117 13.752953240031324 15.90100369627426
Cd 12.561927165435822 14.312846035709075 15.658411044562644
Cd 18.858786477924497 13.764740495429928 17.49898425861194
Cd 10.95507562628854 12.668347445638906 18.1752449185801
Cd 14.473930767711195 15.705947415119546 17.54287396952949
Cd 13.938103460770774 12.705331361448017 18.187491291694244
Cd 9.647222692784997 15.528037765028243 18.164158922893115
Cd 17.43354616538354 16.452745061112132 17.569021283621172
Cd 16.700605621359717 14.266653821556815 19.478681100311448
Cd 12.26168524708192 15.048267349194816 19.56695847423321
Cd 14.570289445703304 14.71786584862545 21.378885052265286
