43
Energy = -18.01655589 eV
Cd 13.033804009249069 15.049354791363116 10.453659643472141
Cd 14.752701853409576 12.560923939094673 10.181954361172874
Cd 16.11487149405497 10.218913725967145 11.270883831179447
Cd 16.261308108157078 15.412000822664318 10.157973867212565
Cd 11.802025595424942 12.341300592744519 11.181562171273837
Cd 13.471178906818237 19.651381421132502 11.9685858918294
Cd 14.3687832585687 9.174078548155384 13.546671003185265
Cd 11.566147096176138 17.674335954617597 10.635917997595385
Cd 18.72174910916308 11.648965373882147 11.85395689322306
Cd 18.937341826733476 14.485377862039178 10.957883253512975
Cd 11.69573343223129 17.7096375963133 13.620943211733719
Cd 16.274993350342086 13.745914848485516 12.666821732358171
Cd 14.466004656224536 16.118559195544034 12.943639440280618
Cd 14.523770875061354 17.75206743328993 9.828632918291433
Cd 13.866742901028742 12.319000665224452 13.423100083274512
Cd 14.489375896876822 18.767263777574684 14.635746102800363
Cd 16.34223099455617 18.510208771971318 12.158359232579743
Cd 9.527611620907123 12.545820694833004 13.188028352188105
Cd 11.515948458823175 10.148530996359689 13.207769061545795
Cd 18.668340326251673 16.79790542384595 12.76887943550472
Cd 11.843045731866324 14.697444858323108 13.274864655647571
Cd 11.77305258426304 12.58563788339334 15.624847847451178
Cd 17.632286197477814 19.059636515851032 14.902185411337099
Cd 19.097475510158493 13.649992204584299 14.129684792627865
Cd 9.430057014567987 10.424169851485946 15.47436831804012
Cd 20.24151431642383 15.982074795515814 15.42770637107935
Cd 16.758387761156538 11.116360077410926 14.21545418472841
Cd 16.790436351111758 15.817815127990754 14.866013618740453
Cd 10.170117706970203 15.772671311263647 15.544484369703932
Cd 8.464865671989925 13.360483767922199 15.872896856182562
Cd 10.583160795938522 9.876723078489846 18.153055062165585
Cd 12.587809426571324 9.490783056343847 15.983015770530978
Cd 12.676783854203128 17.198479088293688 16.492860657012308
Cd 14.145958010425632 14.574952443358463 15.520585125353824
Cd 18.846996373675477 17.790253823645713 17.239980723493563
Cd 15.551687254632704 17.521970762687886 17.12295893943053
Cd 11.927846133792377 14.72051751594704 17.88044194790622
Cd 17.116932385865713 13.174695537280611 16.427661562678328
Cd 14.704839466651249 11.57255776980436 16.500463827065015
Cd 9.77659573559858 12.718037635523238 18.407353942864233
Cd 14.757465994672687 14.346104796945312 18.785989443206457
Cd 17.402815331070958 15.449991230737636 18.21846031949954
Cd 12.775092246226334 11.922990057466084 18.73958339441007
