48
Energy = -20.84956482 eV
Cd 15.788349895069608 14.068195008337906 8.536930755668909
Cd 13.199444838607373 14.000497826257204 10.070715198502223
Cd 14.863398015949816 16.539191448363734 10.1092463229444
Cd 18.606120187285455 13.48611543232584 8.975953556841032
Cd 11.936389770656547 11.3420309339726 10.82323678141143
Cd 16.39699335264159 18.334188420694204 11.834767546379137
Cd 11.888229101269236 16.639603827755398 11.102725084742737
Cd 18.304264173601375 12.110554613846652 11.524914259291
Cd 17.981097492413774 15.993131104813468 10.57286140342555
Cd 15.231739745035613 11.65829547466327 10.578477029283384
Cd 10.70678297861354 13.910144846049098 11.780401795290675
Cd 16.407323160925372 10.350152396826976 13.072470248140517
Cd 16.539304525853375 16.167627500886137 14.480110824954673
Cd 13.401435749916775 13.16663032993049 13.281216724087699
Cd 13.741776859960742 9.42252325481892 12.018647437524592
Cd 13.972289095855578 16.188328696735326 13.179420276719336
Cd 11.63821415091157 18.47151716328405 13.61072784133661
Cd 16.01041454946625 14.18793249205565 12.105677673356233
Cd 17.486732421720756 19.686371201299785 14.301279343615423
Cd 18.800023103066962 11.675415149307875 14.470617264718554
Cd 9.616844420488038 16.30383388516612 13.09468971983605
Cd 19.02986639252417 17.305009818059197 13.122442759416463
Cd 14.463236451945544 19.236513537572662 13.953764800774392
Cd 11.487732463708959 10.485556123954243 13.747325885418178
Cd 10.142755479936408 13.101822065053147 14.580888000499966
Cd 18.764584711591336 17.536904115658977 16.10268188024498
Cd 16.117767388037226 13.116304312761145 14.932840357851486
Cd 10.478891724816643 10.799397176416779 16.506929734513918
Cd 8.66014565855535 17.976912351543753 15.330745296816527
Cd 11.893891898149372 15.394902749172394 15.081385678031157
Cd 19.04668818855833 14.404215900003335 13.434331227471215
Cd 14.137784445684948 9.812579164216908 14.97963093263771
Cd 16.956496997452927 10.135967147858908 16.125833775301274
Cd 13.479684032247354 12.706213353388122 16.220528287324516
Cd 14.549870518364788 15.538426572832076 16.463164222309427
Cd 12.852283618529368 18.13392058780768 16.426257936174416
Cd 10.946947035150966 13.6995392396837 17.610306702715324
Cd 10.273911464868913 16.743193909544164 17.380976422404533
Cd 17.23899966778874 17.213425334984812 18.59164552305064
Cd 14.49349959147911 10.168301693804159 17.867450797905143
Cd 16.448256354819225 12.406855314927832 18.06500032873328
Cd 12.653829631176867 15.806438463332755 18.903228048220132
Cd 17.814266225737175 14.767236838131192 16.938846057848792
Cd 15.764635650476164 19.03653328872321 16.696639800760554
Cd 11.837570813059617 10.490384021797997 19.011472545688207
Cd 13.526246009820818 12.897223852884057 19.33441790205823
Cd 15.616109275636466 14.94923623437279 19.416383149355116
Cd 14.458204203523298 18.086029307071943 19.30111834135385
