48
Energy = -20.02686153 eV
Cd 16.696229931749983 16.99275480752276 9.645866477329488
Cd 11.890686758099807 14.3978744499733 10.134236676348568
Cd 14.72153515566071 15.460228340282441 11.220270418073
Cd 17.433891330706686 19.738662782166262 10.580477999377607
Cd 19.482354532555995 17.21346660151273 10.64615136362244
Cd 14.316450218264002 9.945938776647523 12.133135355092088
Cd 14.599536460807657 18.977221754045832 10.906761492424783
Cd 12.260462617327555 17.081279654209872 11.524675291151421
Cd 15.309287406646304 12.813794665528754 12.243528708420529
Cd 17.87660349552184 14.688638308620833 11.551048354932314
Cd 16.660874627396332 17.26790671747725 13.019323281140801
Cd 12.140460824033722 11.977651133270355 11.811422778989831
Cd 19.795388862956305 16.315393583087513 13.535338177540655
Cd 19.345592279987848 19.355777677245534 12.76767738219747
Cd 14.500006303603376 15.73263317651135 14.362887848973172
Cd 12.709129914679304 10.462493444386883 14.672046121543524
Cd 13.703301672756949 18.72203718506641 13.725075259062912
Cd 11.360359815071293 16.463466663117917 14.20428980278796
Cd 12.438512078688287 13.616443661473786 14.186073156403092
Cd 15.119812986429839 12.84240485218095 15.33793959150512
Cd 18.122148998767727 12.122931705470778 13.150630995787793
Cd 9.383601577785093 14.43528261142842 14.972919022259498
Cd 17.436352072722254 14.687517034414906 14.67410326079773
Cd 16.41155033155364 20.35619024466512 13.455744750593924
Cd 16.115337350605333 10.130048594197808 14.537058192372603
Cd 14.374252816520181 9.423617455073218 16.947124688694085
Cd 18.839843967774165 11.321595667966426 15.826558294321046
Cd 9.872330358915281 11.582435281652394 14.336382413694002
Cd 12.482976736478648 12.397047579827436 17.05984135553915
Cd 18.53982462321001 19.165091642055383 15.539892302565491
Cd 19.40013020750748 16.40515822535317 16.507377661874944
Cd 10.296843214703427 9.475391426189367 16.49146034075881
Cd 14.936125677617477 19.977806046423385 16.18827447364003
Cd 9.779055505410415 13.663534521083953 17.751351316604286
Cd 12.450449141637774 18.323903594188476 16.41451490482031
Cd 16.321376762828127 17.243566151567 16.058111225712267
Cd 12.142272408932113 9.280305840929126 18.892605599693837
Cd 18.162078080578976 13.758447292853598 17.371596243127804
Cd 17.248541873305555 20.795964075982525 17.708123584690796
Cd 9.763988505711655 11.066432554965512 19.05728172479296
Cd 17.23214129576087 16.109213992685362 18.92452284152554
Cd 16.481218718187698 11.36423356631032 17.812517721502086
Cd 19.080305782452985 18.574734635293197 18.60796234896889
Cd 12.201320743319132 15.414339306926685 17.077360785768988
Cd 14.968234147893837 14.26727092777604 17.944456802890137
Cd 14.054308362187077 11.625778783261417 19.506413170922528
Cd 14.438119040026459 17.252324801277126 18.32096362351169
Cd 16.31369768253302 18.922671463722825 19.865528073522707
