41
Energy = -16.60026671 eV
Cd 13.029058440790031 14.668956733138437 9.39409947203367
Cd 16.010451230392377 14.176480655464571 8.518428953508808
Cd 18.596010648035293 13.780221863326542 9.984948738406985
Cd 15.960990145033868 11.638352070381218 10.06744135665293
Cd 13.561763651308501 10.780314571601078 11.664573904776478
Cd 15.286430342184973 16.199846948045288 10.683489739243951
Cd 11.569187260606338 12.741907348158694 11.066922700727593
Cd 17.281385021047427 17.853597580394275 12.182624010187766
Cd 16.20300506518258 9.429646760759372 12.10000438246503
Cd 11.899851836414328 19.288866909980488 13.294216290779492
Cd 17.382023893382428 14.814877858553519 12.557494156837778
Cd 14.629146989144765 13.612112299682202 12.246172264275877
Cd 10.656170067835642 15.189131631131492 12.276863633826554
Cd 18.04473703877702 11.84256183873126 12.41497702254971
Cd 12.3990118924832 12.109657708369065 14.221567406039103
Cd 10.211170235154139 17.182429409608602 14.494249938150386
Cd 15.761281372068972 11.853174509227275 14.459078921884293
Cd 13.290684188979604 16.18870977687852 13.042562674081324
Cd 17.605046460956693 16.64085259867078 14.88960542037809
Cd 16.807377930201262 8.458385284487084 14.806393325189797
Cd 10.435143386664809 14.154776570493373 15.124648536467582
Cd 14.538529567798893 18.854334613092725 12.208594366669491
Cd 14.824311166243021 17.928013544088728 15.189547695321338
Cd 18.954330292722172 10.562255236645882 15.097699384236464
Cd 18.3720997216913 13.527906455642626 15.128999007012254
Cd 14.86530994243229 14.651201863595233 15.12610680974013
Cd 13.915404597390149 9.311892700752324 14.26419009763266
Cd 16.950999420908275 9.989810634652937 17.374468508963986
Cd 12.613936993705888 16.11166687852708 16.26741871218637
Cd 11.988213550375736 19.206315933258523 16.252634825527213
Cd 14.049266372575593 10.803167960421497 16.879241182731604
Cd 16.724863545120403 17.8833973890643 17.5750382122494
Cd 9.928427727654352 15.210338700371521 17.897366237663096
Cd 16.21326295422191 12.874811720611076 17.412210548209593
Cd 18.043409590997857 15.228424939263055 17.52523924133385
Cd 9.108400889672506 18.007452307103335 17.16116938520307
Cd 14.992512635302111 15.562882330612844 18.229044237825498
Cd 14.182842359443093 19.16621432202442 18.28804356137053
Cd 12.214086613257422 13.008688906298259 17.281112773277297
Cd 12.513134343850032 14.99919001432184 19.636171260351304
Cd 11.627285330813944 17.747727335389857 18.955895816853168
