47
Energy = -20.67916783 eV
Cd 16.67353913100664 14.850792459950306 9.585464567291536
Cd 15.831494429026677 11.698218722558648 10.803889863331401
Cd 13.98416388256257 13.644187428609596 9.216551328923604
Cd 13.951031623840704 16.63037544183272 9.608513921654426
Cd 11.528660364609074 14.889460984746862 10.563010680087906
Cd 12.814703801286521 12.215045898358541 11.48769029989112
Cd 15.533952206027296 17.66843380728509 11.76438388394737
Cd 18.226517205071527 15.816837331039094 11.877897165554185
Cd 18.446429299627166 12.819224079177976 11.389052527400823
Cd 11.644361566815066 10.575234327414076 13.781430159868615
Cd 13.212461588775486 18.88093957720052 13.875264124205486
Cd 20.097404303908654 14.16461585376444 13.678436338992183
Cd 15.244149952676377 14.499242514020944 12.328998436947158
Cd 11.877378513230369 17.916576837542618 11.37978855067449
Cd 9.689549332973009 16.068005533742458 12.563362870768323
Cd 16.601873761985107 10.640817654246776 14.806652522448587
Cd 15.845159416762415 16.609018134118237 14.643871757800891
Cd 12.82930063756919 15.676073570787956 13.441823334814636
Cd 10.607196797170355 13.28909218093194 13.165756485782477
Cd 14.490510856648864 10.251309526472422 12.961981523317277
Cd 19.299259040945532 11.339767626456142 13.856782775609531
Cd 18.232202932047844 18.53388076309285 12.777167469455012
Cd 15.805102147479527 20.052692762508702 13.636839129335785
Cd 13.887305927458037 13.150779566793995 14.721104311738767
Cd 17.034728434332305 13.803109946401895 14.538174627156428
Cd 10.3836092316677 18.11963261894101 14.56877204567173
Cd 15.056341849270533 19.176599853896214 16.523689687268913
Cd 17.913072580894145 19.320102513220217 15.633520782474763
Cd 13.63850288367306 10.165237917871869 15.97153866012188
Cd 19.103500173149953 16.595508273923823 14.897643901125376
Cd 17.511612413218522 17.10585756024046 17.459210286083497
Cd 9.962086571792812 15.23427116786062 15.45547123819623
Cd 13.341174137994237 16.188553380885335 16.24699044804888
Cd 11.019541834518327 12.324398499686446 16.066855191241885
Cd 13.221333023570764 12.351288851274328 18.119257571429458
Cd 15.496126287758262 14.302837760850624 16.98504254792031
Cd 12.115676117016907 19.146342365167772 16.756949380672744
Cd 18.695769162035106 11.743440490071066 16.820998396826646
Cd 15.947253112462139 11.082556771192284 17.657064562386484
Cd 19.13121837866608 14.57599492279596 17.103906757803237
Cd 11.2436608860069 14.582329448839568 17.977423835064542
Cd 14.977304664664942 17.39233786037297 18.94132821543665
Cd 11.928567499720774 17.265630197533998 18.94148911909668
Cd 14.338552735201816 9.81602345426746 20.655364832334666
Cd 15.628178576701107 12.66841660854107 20.085032680471233
Cd 17.143803529425455 15.060558591441142 19.55440181028818
Cd 13.618681296764224 14.902352462083186 19.928163493049237
