46
Energy = -12.36639702 eV
Cd 0.14368149262289429 15.178411112433505 19.040245361480263
Cd 24.034673808849266 19.924910878169232 0.9916679570203254
Cd 4.536513096500083 8.890307609907055 17.59524383319289
Cd 15.870294909997039 3.874408831889096 19.08945604646122
Cd 1.8332263876479373 23.192778369679733 4.315241906113319
Cd 20.721971869273194 14.868761695157835 21.516271673753764
Cd 0.822936644115549 0.242403857095351 15.957893390834283
Cd 0.312609090860942 22.593523568951444 1.4226199313393313
Cd 13.848663687730472 1.437404452294141 19.78122187387157
Cd 1.8364190137195402 3.2478359587806294 16.081308033115377
Cd 23.07169706794801 17.020315198636453 16.229177184784902
Cd 23.15450975646971 15.177628719540968 23.201068914891955
Cd 2.6345479183832126 6.361010949140521 16.52610440974068
Cd 24.701413613115545 14.471223734839768 16.138987730845184
Cd 18.334962195605016 20.02212487525991 18.036203855023235
Cd 12.805206289907602 4.1950017629781415 18.833536417737626
Cd 22.95543049136144 19.964313325111544 17.071256651152076
Cd 20.439542243705596 18.232063830692944 16.89210089186356
Cd 14.889974991286385 23.607540368918542 19.59429779380871
Cd 0.521843682558896 20.136416918496526 3.5952642270157416
Cd 21.507179740269148 23.39296998036313 5.1204322938060205
Cd 23.87194264092463 24.586604501184677 3.6977072730843727
Cd 23.555591473175742 18.09540768997823 23.789427937681268
Cd 1.4055599087077641 0.28572458471473045 2.189428759547038
Cd 12.97342072708904 17.147525736471543 17.444817614789493
Cd 19.468564667719292 17.437341523630018 19.693327214855614
Cd 16.980193682820495 0.5929806682004926 18.392356634787355
Cd 18.03698065047163 15.907665838572088 22.14500540086186
Cd 0.2129065453522659 16.79715603689794 21.562396245840397
Cd 16.143166498277726 20.971149577246006 19.79619891215651
Cd 14.139260041462968 3.876504386447928 21.657649374645825
Cd 21.982346391814588 15.85208399635901 18.946825724740798
Cd 16.730670426761137 18.292999713905374 20.920968058027313
Cd 15.69022639672242 18.454125214326787 18.071161741418983
Cd 21.018062724095106 20.230299196076142 19.490019698397802
Cd 21.984116740815004 17.96362463032931 21.327954832261142
Cd 3.01214883180556 2.574458649617836 1.1300854383874817
Cd 24.09237858822653 22.086688700294953 5.928547058346432
Cd 24.283573010856184 22.50896835599275 16.427845939644985
Cd 23.263551099931647 13.424714056712787 20.704627285748625
Cd 18.656006161246086 3.2075113280986085 17.940920763747837
Cd 24.154285917083552 18.18110644403658 19.10337629522031
Cd 1.8652283083444918 20.84329108187618 6.184684871813873
Cd 10.150022831101777 15.50254896733441 17.845180158086546
Cd 5.611719776501638 4.3485622380353215 0.37007378800443996
Cd 22.561801371031997 21.547359848704485 3.0019886441527213
