42
Energy = -16.28326942 eV
Cd 17.162796041850182 17.41035851222879 17.899488795255
Cd 11.589041594571942 15.385341114530172 13.994931107544584
Cd 10.827049328695002 13.800926184662755 11.380701082885954
Cd 15.7930804978859 12.229505093410031 15.850405966310934
Cd 10.397511907945713 8.14193021113285 12.374410331010761
Cd 13.80601031403567 14.957694927254654 11.984305381731092
Cd 11.305289090875837 14.496731136435987 16.854435455912864
Cd 10.557060250836301 18.257135431396026 14.602364110352053
Cd 13.851912589838392 17.597997738083244 13.723648167823795
Cd 13.714846083808474 10.009737873126433 16.38696170244378
Cd 16.477609042301882 14.476740310031891 18.18587851092864
Cd 16.522254273141375 16.710577536858178 11.964027325286983
Cd 14.201253395671076 11.851916287155541 12.231922463131585
Cd 14.12220638361956 12.557384623745838 18.330297931129714
Cd 16.548791562021307 13.827223410698966 12.996617001224722
Cd 15.959778814741336 9.583168241335208 14.080312908476865
Cd 16.981834099209276 16.601618867817212 14.845146606905368
Cd 13.157566928837925 9.227603149284702 13.318206815920345
Cd 15.881876117812567 8.124203538747832 17.135914531866586
Cd 14.094684243248926 17.988839564306375 10.721022208419644
Cd 13.30332726391606 13.245001704807938 9.36571673629238
Cd 10.80569231080054 9.452966724831 15.309716409978796
Cd 18.47278665556862 14.262008035766533 16.048158181324602
Cd 13.865763140841755 15.78899975188893 7.848096371933219
Cd 7.755546538853512 14.648536938381444 10.088783624166533
Cd 11.521740772831919 18.769713790678754 11.870248081818053
Cd 11.149049808267726 11.521227899041254 17.37224535573115
Cd 18.5012145378746 9.25080429069833 16.136593365845783
Cd 18.50188566597301 11.758491552942738 14.508024773311078
Cd 16.26537168192823 14.881505458206536 9.598238601305322
Cd 11.54019097118006 13.25741680315291 19.822846684184924
Cd 10.845805684136444 11.267722462755208 12.738725162222655
Cd 16.00563229103004 11.916359143018003 9.576420479972196
Cd 17.491033516237845 10.932889995002235 11.852897368296347
Cd 12.67542944816166 12.559734370148275 14.817070061262381
Cd 9.573380591626995 16.478967709855574 12.035256042046356
Cd 14.560363767357552 17.964312292080816 16.55271392360898
Cd 14.428197538204403 14.935649584898 15.217313208741423
Cd 11.624726388800298 17.521604249557836 17.1618235973126
Cd 16.121296924798457 17.800355928988854 8.476560301360333
Cd 13.740580092899327 15.616793623602954 18.286926870113344
Cd 11.689164580387098 16.32293667007813 9.845259127233795
