40
Energy = -15.68705664 eV
Cd 16.329996419728122 13.548639731626272 12.43143854072204
Cd 20.51170955766303 19.613432468750105 13.216012039595805
Cd 18.18603691421593 17.849065838195905 11.803659808590984
Cd 15.620581207806548 19.309509675265307 12.695294129562761
Cd 12.951623164514762 17.447595380519033 13.296081992814468
Cd 12.998222268912953 20.712278214754786 12.696422358764766
Cd 15.699576028241406 16.379574476725544 12.60516072071385
Cd 10.60821575172196 19.341046682331466 13.96866054127669
Cd 17.998208623745082 21.007202460464292 13.759240107413621
Cd 17.51120513577464 12.22529490222666 14.864067798101019
Cd 14.433086757113609 11.644854002309625 13.526361396818938
Cd 18.181347218106662 15.082098174535801 14.509962039042227
Cd 20.38927800481142 16.71199556593412 13.56129573933081
Cd 18.17755728300396 9.2726705979379 14.941625018581489
Cd 15.477622854396154 8.898475280637562 13.527719149820133
Cd 15.203787933889306 21.6401087917083 14.6976564359016
Cd 13.59374919985815 14.553070478895295 13.902812795987447
Cd 14.606670063776551 18.6904907755164 15.7732398717514
Cd 11.725066251006627 17.7505674554509 16.233274113947992
Cd 17.22645923937519 20.761662513905886 16.759707058587757
Cd 17.35422337595993 14.031845894425103 17.332440239302837
Cd 17.481464642131016 18.133364707449534 15.010376426767946
Cd 12.38587490018203 21.134499519714847 15.72061315468952
Cd 15.578948385672431 9.844386558586468 16.498952055748322
Cd 14.592251468841852 12.846992607825138 16.29024271080117
Cd 18.262979676259548 10.94206780044378 17.611333660975653
Cd 19.958049795515976 17.097785515144796 16.479000163265784
Cd 12.591504161091217 15.00901790876584 16.739073658966568
Cd 17.053553994512004 17.844432031068745 18.05678083196181
Cd 19.174318772833736 15.99513868143091 19.05004952179402
Cd 15.564652394824455 15.889183651584963 15.943222689851387
Cd 14.467322560037976 10.93796436303146 18.941982751857726
Cd 12.506346028679243 19.853651795277504 18.345650641442116
Cd 13.849710737653966 17.084880492588532 18.692394972619958
Cd 19.72447106450043 12.93100947485759 19.209604855679487
Cd 16.787929935618756 12.406389855328522 20.114347997181465
Cd 18.478462329751128 14.571624643616607 21.620190747224303
Cd 15.367957615281954 20.10179991595175 18.99243212816118
Cd 16.165141469573502 15.72252844973126 20.156290711350966
Cd 14.009727223811495 13.966693075882036 19.210218833430588
