47
Energy = -20.81030003 eV
Cd 12.915695869303274 15.28948274042726 10.335537531548429
Cd 15.678305281055978 14.192888538534604 10.486068312802438
Cd 18.271404838987188 15.719731224993637 10.398360551753317
Cd 13.16206182521137 12.334854099821518 11.277945124229465
Cd 16.043781304052636 20.000793179185475 12.228837857063143
Cd 15.257017435198089 17.025241256301232 11.634484434740447
Cd 18.36852233815222 13.019897201661248 11.560703823283301
Cd 15.947325826172852 11.442019410215618 11.826472009274486
Cd 18.27352678316042 18.285669229361364 11.63216243053055
Cd 11.127534669130165 18.744127165138167 14.967580061826698
Cd 14.454901996948248 14.119062127607954 13.534777280371046
Cd 19.856392057485785 13.466260931836896 14.040224106639638
Cd 20.040290951877914 16.457243949533865 13.282169900695182
Cd 12.345645518500026 17.051945558995435 12.76770707932662
Cd 11.26178189412349 14.324599641977763 12.775643697092015
Cd 13.456696004808935 19.73602576286483 13.443978920674002
Cd 14.243273505863632 10.606936442241892 14.047715004171947
Cd 15.399597885912446 17.357560726976473 14.764586057094142
Cd 19.72642550672401 18.253063161249454 17.164727292824985
Cd 9.834474692964653 13.215665114318476 15.217882229219615
Cd 9.751900744430108 16.153984654317313 15.032068638444342
Cd 11.421053646462633 11.294384729005799 13.416815195108157
Cd 17.152249258212443 15.217756249189794 13.587322226401247
Cd 10.195456138490714 10.201852868148197 15.899877378157045
Cd 18.254187025739316 18.6221503546019 14.580167007326759
Cd 20.68789543504646 15.47446053926527 16.11429375163116
Cd 16.82517117653461 12.192933551711466 14.753216894455349
Cd 12.872237074064113 12.735184965626079 15.803766546288067
Cd 15.978324519925984 20.509491005093828 15.173568630951273
Cd 12.98941598065026 15.777360463153672 15.52315021388328
Cd 17.634640453356973 16.04397623878779 16.48516881480645
Cd 18.858622770248218 13.10040803887059 16.76364013584757
Cd 14.979135368041657 10.632024144696949 16.872428714424043
Cd 11.02288476263644 14.287320888714607 17.712920524652517
Cd 11.99901400178642 10.457868025445281 18.146293717718187
Cd 17.642599768718537 17.25098909830531 19.412851957267534
Cd 13.659916020049879 12.81588579153119 18.89837089302407
Cd 20.847159337316572 16.133589061828342 19.061855796135944
Cd 17.012916337976637 19.64881833264573 17.77416294364049
Cd 16.72949744459597 12.131240741844415 18.633350121863426
Cd 15.373397238553535 14.253007877448406 16.6220042054568
Cd 18.583784537430414 14.358458286567126 19.443521329112226
Cd 11.42123836494231 17.35458579019454 17.569967111991733
Cd 13.528770576042527 19.48879321689451 16.612579240874773
Cd 12.83176211999796 15.708495752299873 19.580995707889585
Cd 15.693529400023788 14.85658786535611 19.79924003256655
Cd 14.919265927456422 17.186005619575454 17.869520179283164
