42
Energy = -18.20409701 eV
Cd 15.184078892574274 15.54205076946858 9.62090820649539
Cd 13.12941456384374 17.969301383831947 10.222358435518629
Cd 13.684449874922505 12.154615823685573 9.806912059031474
Cd 16.134112449983554 18.193453072536144 10.296968807230103
Cd 16.203692688771078 13.095654212171011 10.781863103600752
Cd 11.450860722040405 18.017883462695988 12.628573662923344
Cd 14.393909522832717 19.291546640696104 12.66774475930632
Cd 11.022690362098814 12.595420107528458 10.999012584184772
Cd 12.419400983329364 10.070639083062739 11.650061380416517
Cd 17.14353771374155 15.530606457830915 12.348103503610613
Cd 12.33668077062449 15.161439799880778 10.343600562120427
Cd 13.85437093453889 13.19959059230379 13.078942575198724
Cd 17.579860908292858 18.42187862686118 12.753700287291167
Cd 15.400394038220185 10.421507213910544 11.9296555064291
Cd 14.226636872513762 16.1230179886721 12.888868668630291
Cd 17.13633889413559 12.751317749277145 13.575499633928542
Cd 15.946164976547497 19.016338249747847 15.23755264397658
Cd 11.164094587668487 14.962553213958081 13.071243535945634
Cd 10.732319368767806 11.954388136515448 13.798646051610458
Cd 13.370056029252687 10.450609462605831 14.437458003000614
Cd 16.273323021354425 9.708961719414935 14.654108168709346
Cd 15.163263235536 12.837394709853424 15.817275438561866
Cd 13.199397660635714 18.13615902751454 15.3003572597035
Cd 10.434788144967852 17.016884445240606 15.289692500231935
Cd 16.599850721009133 10.112612850759964 17.66044230780103
Cd 9.659199743771085 14.029075749736354 15.650685718930688
Cd 16.02641489565987 15.750781688672133 15.287909910132893
Cd 19.207352974392975 14.04992302577878 15.496752328695575
Cd 18.99871209509412 16.85258483538061 14.746887044685668
Cd 13.072972636357628 14.967578597132075 15.530939821248964
Cd 18.180582482741208 18.61180526149914 17.05947955868554
Cd 11.958612971536514 12.193053230401766 16.517291967589358
Cd 18.5964254800459 11.174292150654573 15.74403929356171
Cd 13.730625305995769 9.932755080112276 17.346384093480314
Cd 12.87861962014916 16.97860995130642 18.054959763675537
Cd 18.26566701945493 15.809107557184216 17.77359806607189
Cd 10.241741199171411 15.691727947367813 18.015334232193815
Cd 12.493909703979307 13.897850038218255 18.845724579479487
Cd 15.248371885931283 14.965189838735586 18.216552947552845
Cd 17.548358206167816 12.94604499396817 17.992589518851858
Cd 15.584849588912874 18.04447852912168 18.295342867791707
Cd 14.786049805097644 12.031470277366925 19.228132194576453
