43
Energy = -18.14756241 eV
Cd 17.513045747067554 16.117507974642344 10.25977749021672
Cd 17.67269092052582 13.366853987471512 11.142011980266709
Cd 18.625666853006496 18.808483758110288 11.321603454850115
Cd 12.167104574243323 14.838367744678365 12.267468570852879
Cd 15.230536124874575 15.107939276754546 12.06824788593663
Cd 18.533539748888888 11.371454517322336 13.050537458704072
Cd 13.406706844976393 17.594463786731797 12.465297473560843
Cd 10.84138832752137 17.133875043770242 13.902978037069852
Cd 20.301368729558202 16.27956180349339 11.720538958235515
Cd 15.714914468406326 18.37557721806693 10.966088607680064
Cd 17.709048174948837 16.214833018152426 13.675743917207535
Cd 11.841629985297015 12.091007462775334 13.101665023422942
Cd 15.155201368892508 12.138422738028714 12.695795043668797
Cd 19.89462067603514 18.55501796315224 13.967082250915258
Cd 8.299245504866123 18.25076028923863 15.255574316880539
Cd 16.438789527550377 9.986851723420838 14.580826415842958
Cd 16.9893366730668 13.603071837340027 14.771423438327574
Cd 10.954586352255834 14.530683145014908 15.116317552157376
Cd 19.893077291399464 14.00393424340861 13.59766912308198
Cd 12.912292674932623 18.774384031835275 15.262156435679005
Cd 16.655720454166467 19.14514571731222 13.743654997140116
Cd 14.026795740299894 13.786111706470633 15.212575976046132
Cd 15.49280006284596 19.620689036571992 16.41146629477218
Cd 15.061324933865286 16.54856927150287 14.882124789779335
Cd 13.638333389891896 10.64075280261969 15.04136302879995
Cd 18.91078558959422 10.901248891770082 16.041812525324502
Cd 10.655344152717692 17.435900893190855 16.98445940780869
Cd 20.171551207912525 16.204901064017296 15.813884704564238
Cd 20.60861662765039 13.357397115034638 16.417384195212044
Cd 13.156574628302854 11.99391014685259 18.45834359447153
Cd 13.43367454880713 15.815611040009335 17.22219689174659
Cd 11.176643545965533 11.769439660156525 16.184658167175883
Cd 15.68977495601868 11.844706848589533 16.970125794426565
Cd 18.38533319687265 18.64453007379672 16.544115922457856
Cd 15.606937750020222 14.437531969443116 19.034984303302487
Cd 17.369758588036678 15.793845252972396 16.841324547647314
Cd 18.136407654748343 13.148900680444992 17.969237478914913
Cd 11.277547160487815 16.762483624677984 19.768877129936747
Cd 13.211755607371153 18.796235593327008 18.34899208360758
Cd 16.17341113491017 17.7470464453824 18.662267963812557
Cd 12.895621817168259 14.18486116844249 20.402569367987628
Cd 10.80870595353427 14.228772309031946 18.065548059823396
Cd 14.18024320780331 16.86680960228204 20.60768181799099
