46
Energy = -19.96056421 eV
Cd 12.011997701889191 13.758352975435157 6.447659288305012
Cd 12.308110377156291 10.868673770406623 7.228004155963098
Cd 9.799564735183408 15.539226400223464 7.6763617232432
Cd 9.618007571980892 12.481591890597866 7.946341377567962
Cd 15.586410335791594 9.979851504497509 8.071654790938853
Cd 14.764028935063852 12.560433007309438 6.985441036132481
Cd 12.649285831925082 16.448835989551995 7.7390853182696535
Cd 10.496298054858954 9.866096069186522 9.363654754455757
Cd 13.174175643175946 8.458842538705216 9.054112645321924
Cd 10.476803983894312 16.843295067506524 10.303651272142273
Cd 8.215637364376876 14.480773713464046 10.025643505068516
Cd 16.63512804387782 12.037122111498553 10.008010936784466
Cd 13.439126462937505 11.626131202960993 10.074506562735934
Cd 15.631908786849687 9.140865676295398 10.968032935360508
Cd 7.736878674276992 11.411712748273144 10.000852031564355
Cd 10.944145267881092 7.017320892942265 10.740386251430184
Cd 11.80393304764962 14.022251715109057 9.633115460843596
Cd 14.942589495939025 14.463845771678272 9.201564924830862
Cd 13.866878169750102 6.77450646843631 11.534666869492517
Cd 13.6932439569727 16.68263119590661 10.572272193251585
Cd 8.293303393035359 8.509883740839475 10.813142288091754
Cd 12.442090191779531 9.687308424556644 11.989762008099193
Cd 10.517920666570333 12.123478341680812 11.428328960802393
Cd 6.595869262898815 10.214857435472501 12.57985149875929
Cd 11.985785425679433 17.144767803500663 12.898710845217096
Cd 16.357601041232794 14.29708907663567 11.955757885208836
Cd 14.795786368909797 16.349843598948667 13.436656159087558
Cd 8.988405448019481 6.814089370800687 13.151160221806254
Cd 9.995746191217508 14.93921405423241 12.58223099279636
Cd 7.781301134412414 12.921524148522892 12.71836082337162
Cd 9.774969296186532 9.954509759175767 13.179762436350648
Cd 13.029881753827896 13.785957341547824 12.26827031806041
Cd 11.9001353749113 7.106200123318358 13.793946814473069
Cd 12.05143230376478 11.74397179706054 14.153349532769276
Cd 6.794764446056786 8.118638125682544 14.706157502420945
Cd 9.638037819231837 13.380859985633137 15.181852679815938
Cd 14.81638661039796 8.539821170024167 13.915268416158147
Cd 12.185454517099007 15.00942110619778 14.987413324824908
Cd 15.04645490805471 11.516144968350718 12.77191322521965
Cd 15.036713383587296 13.81537444284126 14.979509075544302
Cd 7.878571585788674 10.984414845810614 15.341705308893145
Cd 9.655847925632882 8.440615923891755 15.76240904950903
Cd 12.825537571151996 12.928723651835307 17.063974263880816
Cd 12.551500362130202 9.101202976758549 15.925265441679386
Cd 10.489216918529936 11.11105673637405 17.073562394101202
Cd 14.751587664209147 10.973124346068573 15.741114505103049
