47
Energy = -20.37683616 eV
Cd 16.124284004367876 10.817453751205102 13.327384244586028
Cd 18.784630432101746 12.290219391995388 12.67569269931559
Cd 13.712115318539414 12.170677169453201 12.365015983100742
Cd 14.732854253147813 12.713931531237671 15.629912591246576
Cd 18.526811464044386 10.398304415801555 15.101065153463997
Cd 16.50335380592025 12.349665787435896 10.81891866394966
Cd 17.325581301943803 15.223833874085624 11.874852948630819
Cd 15.705330109853822 9.472353162431698 15.870668280638933
Cd 17.437015975559873 12.271793583581724 17.33028609956212
Cd 14.782439127413042 10.78525591236702 18.24316130283714
Cd 11.865902783659154 12.193112324380373 14.777643150642332
Cd 14.713412886506875 14.517763233509537 10.241553131038
Cd 14.626318379113123 14.971829609305834 13.432976327112588
Cd 12.31676861574155 13.360159519791939 17.588320834342248
Cd 17.132984765754923 14.307627183729501 14.874978251946418
Cd 11.671541720427841 14.346329039124754 12.668511427108248
Cd 19.877845505675413 13.021750140627393 15.544716647521419
Cd 20.157629125442824 14.826435491718211 12.822478615030795
Cd 13.503974406377475 12.455755150153246 20.178569700254386
Cd 16.54139315817065 12.424136170480361 20.140446468520253
Cd 12.310588029709626 16.081432916090606 10.41960147148211
Cd 15.610324339565935 14.674012612830722 18.15809089550922
Cd 16.537678314798722 16.87185222223925 16.38360329557219
Cd 15.53606740570139 19.312753188934636 18.158837506751354
Cd 17.57902176876246 19.90339573146708 16.153805162403437
Cd 12.572095077014291 20.316738353042943 13.657143889645447
Cd 13.050165218059098 19.66466281832365 16.381985181568755
Cd 19.859010374093213 18.23065882983054 16.70818610321643
Cd 15.245371284152418 21.15524791136306 14.721505985082286
Cd 17.2258223135642 19.486105791813227 13.030341909683504
Cd 15.414527421281562 17.279843873532887 20.50620325861463
Cd 18.009855383120442 17.785426558228185 19.05704326608353
Cd 13.00427695048611 15.332295754451872 19.879778166459474
Cd 10.904805333305012 17.498274054177745 16.630745877359544
Cd 14.974125047098878 20.68810626471819 11.641806149382774
Cd 14.770087480934642 17.890359689913836 14.208170055624628
Cd 12.963688994142 17.90664240125921 18.749438661940612
Cd 18.954581202143356 15.152607571300242 17.649722025520028
Cd 11.685723206933572 17.261609622996417 13.632353352105255
Cd 20.88593611012492 15.865569250335813 15.425894289518428
Cd 18.462126700703376 17.10639522330846 14.043005624802442
Cd 15.180645652366088 14.595212960423556 21.846063005311024
Cd 17.8750484510211 15.078511004865566 20.45101347728312
Cd 12.688246313897514 18.835461901803303 11.189594338131645
Cd 13.671911032595675 15.849588076312084 16.166997692242195
Cd 10.640101401180917 14.854166981427245 15.484920835588998
Cd 15.427465927917238 17.48616586702855 11.238479876704769
