43
Energy = -18.62619991 eV
Cd 11.433366505472604 8.809886876589578 11.441439701686285
Cd 11.462300333163435 15.235225257363753 9.153421809426778
Cd 8.664833333791245 14.595402988807527 9.920889813436743
Cd 9.933036793323941 7.893349391759507 13.982056238769868
Cd 15.645028489221119 9.060948865739721 13.886229432591842
Cd 13.141041170583636 13.372119076670192 7.494345474819592
Cd 11.443660015176842 11.32946557389125 9.413831011167659
Cd 11.428938832457815 8.757496879611386 6.507593086912797
Cd 9.113257012650433 10.46252940813847 7.241540087624118
Cd 11.4652658016904 15.227532712878233 13.753135528170985
Cd 13.766068071193821 10.425385710951286 15.644953550604129
Cd 7.228179526102776 9.098938646829106 13.88982652544507
Cd 9.119943909097792 10.445018690350667 15.649503580842836
Cd 12.925057178613947 7.889250507471201 8.896351972225373
Cd 16.605125341357322 10.354416893838541 11.440890673910799
Cd 7.328705625659365 12.088029956043476 13.972647303221654
Cd 15.570361222773318 12.057034430388022 8.922176105658268
Cd 16.454711922983027 13.288694822166724 11.446128944858883
Cd 13.762130752577347 10.439236727836958 7.2389327664108745
Cd 7.2247446482100885 9.109288456290304 8.99779126163148
Cd 8.4151513594644 8.028741050278306 11.441475699100923
Cd 13.145982240279121 13.359394917345877 15.403852397001993
Cd 9.348552377752842 11.411060691459905 11.44706570389613
Cd 9.769342757535231 13.373528126371417 15.40486301562488
Cd 11.443676445525076 11.706938032382375 5.7734648101796315
Cd 6.457669361102513 13.337317506915591 11.454400884531488
Cd 9.930198470981441 7.9017949220071655 8.897839560986522
Cd 14.25388587197974 14.56510352855431 9.917328832859495
Cd 11.450505048743588 11.685902656339255 17.11969249626415
Cd 7.324304713349721 12.098374591113442 8.92849067709094
Cd 15.642393380345105 9.069224852397832 8.992309416844831
Cd 12.902106916383683 16.682766399162393 11.454285369313945
Cd 13.542077232703692 11.393441458203156 11.444801088401885
Cd 15.573877842412346 12.049248246918815 13.966536755118623
Cd 6.277854294800792 10.40432365679211 11.447336901179295
Cd 8.666867544312787 14.58958864249702 12.989045055388152
Cd 14.445158500143684 8.004814943929343 11.438978999965489
Cd 11.445795899062059 11.323707090648051 13.477732291844214
Cd 11.436466999885 8.73876889288207 16.374846250833258
Cd 9.764903468815994 13.38734615680111 7.4985590258534875
Cd 12.929491342214037 7.878528414118661 13.980402082377632
Cd 10.040223002899646 16.697020243005102 11.45718537274478
Cd 14.255023283616291 14.558804566470906 12.98211514751723
