40
Energy = -16.03382247 eV
Cd 14.893725939453953 16.11704285476291 8.857555464298231
Cd 12.312220018611773 17.489040687678884 9.731829173278369
Cd 13.540027941604993 13.52553876252821 9.479350372027623
Cd 12.248218370050456 10.857683627226502 9.523624987941417
Cd 17.151715009100826 16.36260054206809 10.881274637416213
Cd 14.868554466409837 18.58265409699592 10.85738286155023
Cd 9.615949965893757 17.033812531086305 10.877864070807965
Cd 16.504696356337266 13.576597678093911 10.32205696567598
Cd 17.91672583476975 19.22763100590452 10.42743578672434
Cd 14.861542317261188 11.173397210959518 11.158811536451614
Cd 13.414754179519829 15.385129556532448 11.850345781906613
Cd 12.917513212280644 17.998613122685803 13.286573205333648
Cd 11.10518593993611 13.118283776232419 11.24637652250975
Cd 10.458692809389367 15.218479416341397 13.152939454251282
Cd 11.876142035702678 10.063881107378409 12.271667216571146
Cd 14.35562457812117 9.771516361103568 13.927283375820181
Cd 13.497705487666993 12.72300736043341 13.397479182458973
Cd 16.269647151869222 17.677525779841275 13.445253183935398
Cd 16.13860906663083 14.62996466805244 13.275367297211842
Cd 10.431022182109261 12.18608264608349 14.123088316446664
Cd 13.198110744016063 15.282484806875468 14.899837036857251
Cd 10.647964220289714 9.17554957671032 14.822139376604486
Cd 17.044609131508285 11.749703353678264 13.08801064361985
Cd 16.540784195767074 10.219983410525252 15.80079707843035
Cd 12.105500875335993 19.112053327405295 15.996266917136511
Cd 13.047975584385574 9.195429418857453 16.625307114430132
Cd 10.06326882533518 17.226836818419653 15.186411599539445
Cd 15.378446701245077 13.08140107414535 15.814172847915923
Cd 16.815086977985967 15.78221980063426 15.94774330228973
Cd 10.500684583269017 14.375042249141622 16.219809072641837
Cd 14.648184245726148 17.725776926497996 15.984644509968595
Cd 12.577497163144978 12.275911191644697 16.457299549883487
Cd 19.18730994125597 11.890384583389764 15.101160700106188
Cd 19.070034345784606 14.216576493474362 16.838695224063503
Cd 17.5854579915953 11.946679086335683 18.113805109407885
Cd 14.189010408919644 15.37209777497562 17.86219006814696
Cd 15.384141819966233 9.74251938335119 18.518733028295788
Cd 11.59410919199165 16.688570487768754 17.825008916113536
Cd 12.52137373553559 10.710443076724367 19.183837652112878
Cd 14.755291695870232 12.74496960910169 18.853686101466543
