44
Energy = -18.65583465 eV
Cd 12.054940821802175 11.106551432627532 6.242584222396857
Cd 9.237503773005809 11.513059657817475 7.215400751178261
Cd 9.836471148872755 14.400552646646073 7.702365078435639
Cd 13.521888270780432 8.942506703304241 7.830640986324585
Cd 12.71866188567032 13.893713992479295 7.008373295921939
Cd 10.505382881548742 8.793212205249258 7.546673579621317
Cd 11.972203026561491 16.038182711490666 8.92437695114782
Cd 11.472903383996107 12.006207242376332 9.379492954833733
Cd 7.615648746099276 12.99386046164068 9.279550177813006
Cd 14.359939173263585 13.956374823007547 9.614619327285567
Cd 8.422124663075316 9.844170633683392 9.540161958763928
Cd 14.796908629651114 11.755356639509007 7.552183835935221
Cd 15.082774475733133 7.510595051154099 9.931078489077873
Cd 9.35614383465608 6.91303374079883 10.239861587736076
Cd 13.337680173221885 17.332538944845968 11.110185766464033
Cd 9.782359135197746 14.821567843776112 10.743452586974412
Cd 16.735527257044815 9.506468654523227 8.26180695991388
Cd 11.741815631067032 8.939925734761209 10.37665966642
Cd 6.501327758930687 11.117818492579998 11.464107272117403
Cd 12.241891108907955 13.568238404064697 11.839927199258431
Cd 16.399359641946347 12.554775965057951 12.04860036936754
Cd 9.772549162579717 11.518408960873016 11.69299617918922
Cd 14.079713676968035 10.992088347101515 10.458822857328851
Cd 16.699228964952678 9.664932453714062 11.387970631058637
Cd 15.338571065215216 15.320593172554602 12.053218262174443
Cd 7.656380294896881 8.48137068097957 12.236162493637597
Cd 7.223979979968967 13.950248358172317 12.118331373795536
Cd 11.335429004206452 9.285293537708455 13.281234330464363
Cd 14.011388079290427 8.018090796182678 12.53748895149753
Cd 12.263356669033005 16.154997540384507 13.561037077105068
Cd 7.711094127642627 11.781511722897182 14.143460910926136
Cd 16.096957340694104 10.25804674759565 14.293808478506348
Cd 8.840081698653762 9.041335980228109 14.831387883227844
Cd 9.333742974695744 15.576160458487719 13.608185510786363
Cd 13.500805579662769 11.379532489221509 13.270132725871814
Cd 13.770329148627443 8.581623329267323 15.395457002127843
Cd 10.877209696083986 12.244108649643456 14.296676121162228
Cd 14.808489818127383 13.863290023652652 14.546000220279526
Cd 9.05323285764617 13.979411626258516 16.06069570737334
Cd 8.60844045165721 11.159438700668263 16.95909748572663
Cd 12.326778525211154 14.642428964907298 16.03940518615257
Cd 13.773670650697756 11.653441151126184 16.374253158613353
Cd 11.315483711654387 9.673191482756073 16.552107159536373
Cd 11.17023871944285 12.532350462865903 17.710574895112227
