44
Energy = -19.09330258 eV
Cd 16.492036486785004 14.50012905252822 11.984234097240206
Cd 12.02220370504017 13.760960296566589 10.70730781671332
Cd 13.66036779231672 15.370594707155725 12.80585034134612
Cd 15.046012457836639 15.092204756878637 9.410532721704
Cd 12.698937872207226 14.031783876564425 7.440566350902931
Cd 9.955550945485044 14.971906495374977 8.646798857050598
Cd 12.524111908269141 16.628576598208575 9.181842977510707
Cd 12.053476580092413 11.241819062714336 8.5791262844484
Cd 7.698558055500426 12.77409064801729 9.136153823320798
Cd 8.911850919696708 9.996719190346646 8.364396811804585
Cd 14.91314926643004 11.963304750679573 7.597651212599565
Cd 9.904558966017015 12.55232309517651 6.99665608879054
Cd 12.968734842083215 10.06323619937632 11.396715230291525
Cd 11.281633762634264 8.435858280094251 9.380190636117133
Cd 11.460741793916208 6.8655449872171825 11.961820564519412
Cd 14.28983244445356 7.3801332270067315 10.591276275163445
Cd 15.844056485679564 9.219541015323228 12.736128595498782
Cd 13.832776173560955 7.314028121597884 13.581849275337662
Cd 14.686080864277713 12.329133181260255 10.59056268312646
Cd 16.423588786814364 11.353817990468144 14.734426877527897
Cd 14.020764063657479 8.9724783318406 8.051008212954788
Cd 17.320905239267912 11.69045267203025 11.903846227972515
Cd 16.30453154989314 9.822599963331491 9.720151992792534
Cd 10.537829366333794 16.82989486573459 11.3242884994683
Cd 8.182448408374444 15.063056917303458 10.946395988377182
Cd 7.1758471320965285 12.773505509475212 12.452729192105494
Cd 11.056614222799364 10.275208292602473 13.556419024974929
Cd 13.905977471453095 9.613411003194702 15.438341234730753
Cd 11.307337903877402 7.714566516604731 15.15300932210712
Cd 8.377181587379672 15.42694303868519 13.826592155384413
Cd 7.948037426270594 10.089116203588741 13.414525013430225
Cd 8.903620488488137 8.257937940933717 11.217898706793243
Cd 6.858871004028965 10.356799162003405 10.59447861602456
Cd 10.083167304834602 11.498692864265314 10.969304809948067
Cd 8.218274060235029 12.49004713097165 15.312200706544921
Cd 11.55051855627604 11.958865546474087 16.26432998763766
Cd 9.423960248451756 9.82192214502175 16.105621705145744
Cd 12.952284162334951 14.634407888784743 15.693592231558176
Cd 10.644724836746834 13.282844987015988 13.275080660243017
Cd 13.500912060487599 12.218361112533408 13.408896055773642
Cd 14.466836419929486 12.239698346475802 16.77309256075409
Cd 15.775087020958845 14.29015023806721 14.831279802340935
Cd 10.001130838718215 14.67508060776913 16.21881973549995
Cd 11.215346518008523 16.558721112963596 14.124478106194529
