48
Energy = -20.01128939 eV
Cd 12.006471944668775 13.991843034653014 11.000071828592462
Cd 10.406060914894155 15.17785555724835 13.350487504854032
Cd 13.844573649240928 11.498497687777819 10.46515570816779
Cd 15.163812048726074 14.160372360227681 10.873823060992276
Cd 10.798881839256177 17.28600950058081 11.337231992901128
Cd 12.511250609242762 10.15026308230746 12.765435139013372
Cd 13.136606185593084 19.17101049687747 11.399595274444016
Cd 13.196603232765783 16.465291042798174 9.675614292535965
Cd 15.491422474122455 10.596581342135016 12.961281889048593
Cd 10.48388178028251 12.179847810588049 12.965856528475133
Cd 15.134724372884017 16.98663413782198 12.062005462735538
Cd 12.484783399432386 17.54976252357116 14.018303357426067
Cd 17.41111254668399 12.79881141953141 12.705146663204363
Cd 13.605818915826493 11.973876550001453 15.08852506575912
Cd 11.357229449425247 19.065054425193395 16.394173357043872
Cd 15.64638829374187 19.937790596441506 12.974011866454964
Cd 10.892514199183534 15.99013062806699 16.2180836592214
Cd 17.80456492517716 15.554100903003063 11.698883502440626
Cd 17.65660765736342 18.478729643761596 11.00255748420662
Cd 18.72183843861727 20.304392987625942 13.164277393384781
Cd 14.473143976988975 19.166875876611172 15.642714412216304
Cd 10.864241925649665 13.021483593993747 15.754460745946131
Cd 16.701475404646718 17.062018624915908 14.531428430906184
Cd 19.059516755674647 14.810760356903677 14.409955492914913
Cd 17.874584608059187 11.260793104961678 20.02522864239719
Cd 15.846467709446262 13.130776419306551 18.08468132257568
Cd 15.615904693488037 9.722327801974227 18.665910974805904
Cd 18.37082421168291 14.132120491892126 19.53895395041711
Cd 17.1163917121003 16.78182557840733 20.521310059092517
Cd 13.050932649187127 11.165099088192216 18.913705776108706
Cd 19.918196165971843 16.720693417337973 19.306912428364924
Cd 20.248047894920248 14.721117103644687 17.192844676138684
Cd 18.479822686953973 9.47790347377353 17.56668916680636
Cd 12.847211870480127 13.918170573963199 17.734906346800507
Cd 17.046023809951958 15.950934117218544 17.315809394732042
Cd 14.654120694221257 15.51394031334049 19.476094119897002
Cd 18.50481607956994 12.525209153140597 16.35231476498287
Cd 16.16793507190517 10.756911848589704 15.859100610821418
Cd 12.799593384895942 20.066071045539758 18.76295220397071
Cd 18.109618871584363 18.85678705314823 18.34992764302013
Cd 12.088476187812807 16.965294968615524 18.78606753176828
Cd 19.526837738592956 17.463748725765605 16.09222516264603
Cd 19.735724083096194 17.504350136183838 13.12622128334476
Cd 17.405867994461104 19.89399531377702 15.726515897226042
Cd 15.208875316691467 18.35975415879781 18.51488605748614
Cd 14.206350775532528 16.243530617143403 16.26990841205974
Cd 13.592092516184177 14.69167316346134 13.531394353642652
Cd 16.013704321764322 14.08092413782803 15.10830509664989
