40
Energy = -16.29604789 eV
Cd 13.63860053516186 16.3344623042435 9.07672055588152
Cd 13.71290608659516 18.100343436648632 12.621663899825558
Cd 15.64767317676572 14.155245277720287 9.446631711804255
Cd 17.46627303616155 16.572679369754898 10.16456156753032
Cd 15.205596648001613 18.674547245107036 9.953040432191171
Cd 13.918923736697273 12.832012360720258 11.45414348780712
Cd 18.523805815045414 13.835351196115568 10.481556017643063
Cd 11.87029391414006 10.282495692263716 13.352343883579167
Cd 12.104469733386457 15.638032041262901 11.461257137234712
Cd 16.59150823021696 11.523296174355645 11.01933827330099
Cd 18.823499760512306 12.274266199853889 13.003832623443081
Cd 11.06667087846826 12.955111048399147 12.134948671765077
Cd 15.240911616640615 15.555273071044912 12.417688786257369
Cd 15.733320125865355 18.884317364495956 15.136984156593144
Cd 16.833022191579378 18.396583568876995 12.437366072975482
Cd 10.84852020526622 17.31064265650409 13.533306613522008
Cd 10.60074445701917 12.385828502647296 15.055567713159373
Cd 18.24566052482411 15.248152946289117 13.186256120803659
Cd 15.903225866392543 13.109619177177933 14.04911373837162
Cd 17.360399392400677 9.22087422996524 13.561201031267016
Cd 12.86692419385552 14.393216823859445 14.267428738921096
Cd 18.761928031213596 17.701382103820393 14.62657438340019
Cd 11.546104566089491 12.48991357404905 17.720113698406603
Cd 14.73091728577894 10.382976326905002 13.180024041887759
Cd 18.027823132536145 11.162966960661288 15.673196738121185
Cd 16.183539413607612 15.687730035587073 15.530991975642143
Cd 10.101833123581251 16.811999544495595 16.30130736342259
Cd 14.871217287177638 18.31979603286349 18.04082740914332
Cd 13.235547226160811 17.243324134632505 15.619034923203554
Cd 10.235301511970908 14.95725127884366 18.57926312592842
Cd 16.474602212253934 12.949477830584318 17.270745734428996
Cd 13.869674658000825 11.632720708819294 15.775059501017047
Cd 17.847870225001554 18.043891557476528 17.39229410993548
Cd 12.143541207218854 17.268773811208558 18.543649092293723
Cd 13.785243599140903 14.663424783842903 17.132354990248913
Cd 16.65304777089682 15.656142666660244 18.586181447912015
Cd 14.275205946931065 16.191373033615108 20.265523784073448
Cd 15.718053447083093 13.398404764356835 20.387282619069452
Cd 14.192435227928414 11.443600207265641 18.77757810420104
Cd 12.593659901248849 13.762995855821874 20.233541622604402
