42
Energy = -16.64569525 eV
Cd 16.466614088805947 14.245991755914673 9.980999608649705
Cd 11.316657640096183 16.65643588372033 11.061479547738996
Cd 13.809749950297501 15.588929589683213 10.048281719956064
Cd 13.610616730421718 18.703174765415948 10.83478624732122
Cd 16.443978826676545 17.22991188036987 9.608658216899133
Cd 17.73922105218804 13.063337335169035 12.3663988089734
Cd 16.35910803842908 19.836700067681846 10.944221405998213
Cd 15.58219906555865 11.101491969043883 13.43618843287336
Cd 9.97045837786732 16.86670187004524 13.748203127083897
Cd 14.393160200751884 13.808055134828711 12.456796493083337
Cd 14.88177241077076 16.79266445182428 12.950028154683547
Cd 8.854983220774924 19.788993608650326 14.013422475388316
Cd 19.857532710282605 14.744941627052047 13.60140376382227
Cd 12.455373484544475 11.52558918008105 12.429444190627203
Cd 13.963438829368545 13.11401040387751 15.461218727344296
Cd 11.356503693945815 14.278673243786985 12.889936413897713
Cd 17.877847567996024 16.438867888599027 12.175800035127011
Cd 11.89951065280013 19.072794388661915 13.293468429382775
Cd 17.20687674875476 19.3870262234205 13.705305063063324
Cd 17.732547482792686 9.793650372298599 15.41701612099428
Cd 16.34113861351467 14.862965452411489 14.668453344935465
Cd 19.084761590814992 17.39809777960119 14.828671897244991
Cd 12.88103892325035 9.680782058693557 14.670710096738391
Cd 18.924182360597978 12.410006221907418 15.186604106119223
Cd 15.112443288730907 10.372765709511938 16.518443250875034
Cd 12.73558941590149 16.45102396330736 14.984859269160133
Cd 14.371396688059729 15.573739383520572 17.32288653721452
Cd 14.380640883480861 19.55378435133365 14.671500050266406
Cd 9.208676200908425 14.684761273664838 15.486390478971742
Cd 16.23561937249873 17.58801632199561 16.05764047981568
Cd 10.82732921378839 12.087457995381516 14.996225541933795
Cd 16.583037218969604 13.108855954056274 17.128252314901527
Cd 18.82600958136167 15.179386737464435 16.67361592966563
Cd 11.602498890036903 14.233699068039716 17.124175490945085
Cd 14.971593185543734 11.569265284839988 19.214743984654174
Cd 12.324099772771744 11.117174602518686 17.508061273388147
Cd 16.856032263179753 16.91309956685191 18.88098702973748
Cd 12.666461561088772 13.409148349213295 19.696561453345126
Cd 19.947564485860514 17.10106717657172 19.618156501107663
Cd 18.438614529576512 14.223930417775312 19.44342138754316
Cd 15.348952041830707 14.628389966787585 20.072010446015547
Cd 17.053429010962233 12.313900590276745 21.323832018363134
