51
Energy = -22.54300451 eV
Cd 8.205134935916671 10.358314713248545 6.460914856060109
Cd 10.87922204706367 11.475329933495265 7.056059281910248
Cd 10.765166624763875 14.270601138940807 8.116778846569076
Cd 7.58444972895602 13.097287168363836 7.391550118099081
Cd 13.414924902316276 12.537119956739962 7.978230671869861
Cd 15.925817617562426 13.72429080739605 8.840453621741847
Cd 12.896464773385498 9.395139583465406 8.02626609576433
Cd 13.471871807047865 15.656275835778972 8.710957073451041
Cd 9.983800682831346 9.122504290822079 8.712139261945914
Cd 15.666859916903505 10.716453590928293 8.887341478028896
Cd 6.868708640042533 10.53190392250846 9.176602719777884
Cd 10.557046021266375 16.445845842649362 10.142076894419093
Cd 10.038156288274276 11.84725158431209 10.090870368278516
Cd 8.260325029617334 14.411773833121556 9.984428355434066
Cd 17.903373102933095 12.235418811389122 10.553508613753916
Cd 15.489023285595135 15.706736439960352 10.923607424989937
Cd 16.204085154383165 9.784183453155265 11.711568699920898
Cd 9.860389793682987 13.66320357245357 12.575132122877116
Cd 14.71492800071664 7.904529298652278 9.81253182501692
Cd 13.002035125932096 10.744903658991236 10.817641813001787
Cd 7.421636974060372 11.770574417735421 11.8278016141979
Cd 11.660446465044382 7.62077887146696 10.745413398651605
Cd 12.935131649612437 16.71142545203583 11.926421375488527
Cd 12.35752955746775 13.685542803606825 10.866983007321565
Cd 9.216830805080576 9.228621736712531 11.605742680820203
Cd 6.876823928577708 15.123480724950028 12.498077212352278
Cd 14.899897974199591 12.756876856098932 11.96834309787268
Cd 15.325080546040823 16.115005529344444 13.872012777938778
Cd 13.830836836598506 8.23159817236667 12.687514448275804
Cd 13.885261397717157 11.113710489717276 14.325524596429041
Cd 11.236422705820495 11.051356738368835 13.117815879301272
Cd 10.894584723612978 8.040298532282275 13.815702866973822
Cd 17.675866176540744 11.417549751982008 13.616990865512841
Cd 10.23728235049275 16.604892122759388 13.175305690725075
Cd 8.467902209832921 10.065892190590528 14.432106687748526
Cd 12.67310045121387 13.843121841866319 13.928326635033333
Cd 17.645092453017067 14.33426138187058 12.681437451539955
Cd 7.211158338090706 12.790868826552908 14.637085447293753
Cd 16.205133816292744 9.008109301686972 14.762644160742406
Cd 8.210921764560226 15.550880582956127 15.065130234262215
Cd 12.72173102758224 17.214666200840824 14.849226870496791
Cd 15.894673573450989 13.341794593305016 15.048722071166859
Cd 13.311788550799104 8.063270656740102 15.562645899249077
Cd 10.950025892088247 9.957974803240086 16.25323641446776
Cd 10.01694457064798 12.726615348718992 15.501473433515766
Cd 10.9312427774339 15.405061284611316 16.333913201149006
Cd 17.223677419139065 10.906076313759494 16.810932527891378
Cd 13.946531006597057 15.091478546224455 16.569288915001952
Cd 14.012197457032341 10.237355815033938 17.337046767612808
Cd 12.254812238859957 12.701232032477662 17.342238914433207
Cd 15.330612066286802 12.813521826707731 18.019195896606785
