55
Energy = -24.12389142 eV
Cd 13.844151883844964 13.611857738196536 11.720100990999216
Cd 17.72512491293866 18.072515527969045 11.074363479655874
Cd 15.91650355995485 15.715697915553577 10.958049336659546
Cd 14.966174229377671 19.02327354216411 11.281785046700643
Cd 16.814560142389404 12.989674388616482 11.795268370143008
Cd 11.952303851366064 11.274591708131892 11.783904907248724
Cd 15.085156409374687 21.101307133083274 13.337236679198536
Cd 12.815569474129624 9.00721212633323 13.567091809008607
Cd 18.83603200857619 15.149047213577582 11.116934657502261
Cd 13.20012409560987 16.68918106903776 11.62378359020875
Cd 15.048553389260718 10.741906025080077 12.700068560100641
Cd 17.864943408773456 19.735124464114296 13.563335654580634
Cd 21.4843375688279 14.725942515780371 12.517610398589396
Cd 13.936679309340432 21.971382873007094 16.046780530173923
Cd 15.397306153976617 14.239173771199196 14.431123974258174
Cd 19.70279761122093 12.40664724032958 12.381578329819815
Cd 16.93838874534209 22.03412794279957 15.474553437614956
Cd 9.922453427592473 12.592335003935142 13.645780454806067
Cd 15.923702641958664 17.136273753853946 13.751433166650584
Cd 11.540538131378916 14.980900305633456 13.207170157776156
Cd 13.115746066434916 12.350091905847394 14.705625182914382
Cd 18.12314682818794 15.16357174939085 14.30753084693403
Cd 21.45899802058607 15.949639099073574 15.179997027464031
Cd 10.416325052177699 10.153100510237028 15.138832544515635
Cd 19.771329454786052 17.35273673222884 13.076665440609657
Cd 17.575432775341632 11.647611443171032 14.400326515552019
Cd 13.192336496299053 18.893687634923342 13.722715444807125
Cd 10.579009584582236 14.94362829466949 15.97379764641505
Cd 18.302471079643414 17.73768441708662 15.99437329340319
Cd 20.23604480859218 13.155998288078282 15.244292578215312
Cd 21.454708728281386 18.757098261352112 15.934898594231262
Cd 15.860301136352753 21.197979266285554 18.12290206714816
Cd 13.01859576359997 9.543173002930823 16.484800898820215
Cd 19.67820328343896 21.05322485603695 15.678620998254752
Cd 11.281469159839657 12.179492493777941 17.215224149018542
Cd 15.522201582443031 11.294449464826354 16.453147313893137
Cd 13.311823134440465 16.375357748959463 15.24263270097303
Cd 11.818440575904802 19.942614138433765 16.099840938098236
Cd 19.690770898966218 15.252104392334823 17.434910668210982
Cd 13.944763272600314 13.94287984508804 17.152730775138487
Cd 16.489470787965722 15.630624711040213 17.022703426578868
Cd 11.510801573818558 14.97721430171719 18.806688194643286
Cd 16.049359278211064 18.634413189209052 19.506977405975086
Cd 17.966742318698675 12.88591382287853 17.242443889754234
Cd 12.307056600814406 12.343171921851532 20.015471270466332
Cd 15.85842290057673 13.012303728409567 19.3284197804491
Cd 14.240607148656263 10.442885892349969 19.04402660726446
Cd 18.814677596863138 17.17954940935914 19.34689214240147
Cd 11.113191616312145 17.60241902110597 17.573898397983797
Cd 18.622367895103668 19.946915031930423 18.200759480082578
Cd 15.352954419886261 18.732479611940228 16.210119216281303
Cd 13.702105356973274 14.864290458300928 20.76314462474537
Cd 14.007150233679985 16.82580376566042 18.306181878492684
Cd 16.48840519508745 15.731439730804667 20.263044333423757
Cd 14.838808193140636 15.735919373833223 23.457049968663434
