54
Energy = -23.77096724 eV
Cd 17.966082523820493 16.07488372624007 10.649863817650234
Cd 15.547248840440313 15.035457614972419 9.350370472235559
Cd 10.67616343038831 17.115311567510965 11.169365548743
Cd 18.003887677268423 13.380740764081215 12.167481804817198
Cd 13.248516822009982 15.51015019992271 11.328874863556475
Cd 12.821780958130155 19.119361428400072 11.422513571891452
Cd 15.424526260901635 17.696212028002225 10.916090061389655
Cd 15.15351613062016 12.67834703369334 10.921025127731404
Cd 19.801466967594482 11.011900494142171 11.63435966327684
Cd 15.392399934867614 20.09932592662905 12.650944299430758
Cd 17.36756872245152 17.955285050593353 13.420932282195784
Cd 15.78760066435767 15.239615726956375 13.198151847557234
Cd 10.779813290588674 15.000024489222337 13.255141925067186
Cd 13.286293206050486 13.218893949353376 13.29337782205658
Cd 10.441379782637888 18.7815596962215 13.560164505073175
Cd 12.953813342034886 20.137652021182983 14.402078026564702
Cd 15.671222480901644 19.41332372094063 15.557252073711014
Cd 21.343938966637193 11.538737808514192 16.765754745365317
Cd 20.858432524748697 13.054219332414693 13.935058008226264
Cd 13.503197293175692 17.08172632505563 13.949032729864193
Cd 8.18507294539726 20.08033028494447 15.296881573916604
Cd 15.584278604369645 13.140825577775757 15.605048696956153
Cd 16.087680270192884 11.133129126721187 13.196882175105243
Cd 20.542372817774208 9.89506172003778 14.320642968674122
Cd 18.27589739754403 14.487877988117651 15.104382565948832
Cd 19.783237338510787 16.05912998954119 12.8466685174431
Cd 10.599784646511527 12.81062585835413 15.232735410640371
Cd 22.00655309273934 15.75317788946833 14.737446637505235
Cd 18.123714937787206 11.398777707353416 15.43176105919979
Cd 13.096261329030318 11.100630806911195 15.325539633112385
Cd 16.02090388596073 16.27355025643689 15.975630121934993
Cd 20.989301834646238 14.396428643669246 17.13078723656666
Cd 15.711486616222674 9.481603778723581 15.655308399070243
Cd 13.209157680908696 14.83102239448524 15.946248733256393
Cd 10.712258461135194 16.695576085414967 15.685424938746802
Cd 19.417261974010202 17.45374588121306 15.527767892662999
Cd 15.396513258484802 13.228424965621947 18.652241766477264
Cd 17.653388790363326 18.60670261712638 17.677258743911015
Cd 13.489283398192175 20.9833087600855 17.16647468263833
Cd 13.508666644018545 17.629793313398785 16.985269074036715
Cd 10.139431837692936 14.57939969877093 17.69484754850074
Cd 10.879337868154217 19.582342905367156 16.691346144945545
Cd 17.089010612392222 10.200026232337626 18.358997604830336
Cd 14.270329967760214 10.444309677784126 18.0597116838951
Cd 18.592126549786922 15.840214340899795 18.09523232122167
Cd 18.27985239921031 12.967382190566074 18.091691125782866
Cd 19.880940058924285 9.429142058007171 18.162649327338364
Cd 15.253058824955907 19.53481414740992 19.04476239646359
Cd 12.189346928364156 12.4625145522211 17.907634792264606
Cd 10.825948647627834 17.270167977684583 18.796787673788465
Cd 15.800383393716292 16.279719216160125 19.013444904895277
Cd 11.959520798351871 20.048297630488847 19.552428640087246
Cd 13.017868220551707 15.115775075401922 18.99664195785561
Cd 13.40693559107215 17.6694591894397 20.491607295909702
