55
Energy = -23.99919843 eV
Cd 13.262583324116381 14.909464274602563 8.391002483351267
Cd 15.017545497119324 13.477693344626413 10.665623882711072
Cd 15.379745402584836 17.7304675085584 10.5309989840874
Cd 16.0777215456224 15.495373767835565 8.716955690503308
Cd 10.53260846214052 15.566243360115056 9.178952672669762
Cd 18.849330134084987 15.629375538242634 9.294636475091915
Cd 12.4648933496396 17.806704775861096 9.56823387998682
Cd 8.803872597572736 14.147120689789444 11.072647213754953
Cd 13.182434412704358 18.81219322645296 12.315393814082194
Cd 20.911047013873606 16.112444778140304 11.23297567353028
Cd 12.04491715392961 13.436034461379593 10.83415611581843
Cd 17.881800257783752 13.527180561540693 11.61825616923916
Cd 16.006116056972534 11.247889526421224 12.278299310066492
Cd 14.20377423931935 15.731629907043397 12.525215313142848
Cd 16.030119006531724 18.957360250110874 13.339102158680594
Cd 16.39479437924777 14.389592812167033 14.415446740593463
Cd 11.1572900772611 16.294718515965382 12.108724944240588
Cd 17.588500634942804 16.449737108424994 12.262897765184345
Cd 9.828355371391275 13.528506902260657 13.782148452720746
Cd 10.996920114574483 18.27359671931201 14.264033181770918
Cd 19.357172758491075 13.615337408180785 14.244196911527919
Cd 11.987213842771508 15.328318653255453 14.882070642784063
Cd 20.392460423351523 16.38968357810287 14.023788011555244
Cd 13.967193216731351 9.74856953236147 13.712223473986894
Cd 11.515657071770976 11.26057487184129 12.679344249855932
Cd 13.558243380306095 19.63751497104258 15.224259311581044
Cd 13.789909620296259 13.026156548028666 13.784215469548833
Cd 14.287062337311863 9.549202521971626 16.59121844831418
Cd 21.405706015697334 18.624735956997423 15.650986562864187
Cd 17.407447266299766 11.149044186325622 14.760618566903922
Cd 10.289727276121624 13.348889283630237 16.749235871423284
Cd 11.85116799614855 11.092407940738997 15.614252556003684
Cd 17.7200511273223 17.222735105845995 15.106180802969119
Cd 14.998725302397466 12.601993486092255 16.4487875468157
Cd 18.941435054121616 12.461897811419378 17.0343757578707
Cd 13.356757939298541 14.894653121106534 17.41549142657311
Cd 16.381590783971877 19.665363994034287 16.306322377597265
Cd 14.70555111114181 16.724695129667182 15.488165991724514
Cd 17.03323614706945 10.214875076786385 17.51014248335413
Cd 19.061653924502803 19.01928396002738 17.34937021539046
Cd 11.726772680823956 17.796128732369457 16.978442173184764
Cd 19.552201328737443 15.448541330226915 16.772786874438893
Cd 16.452336609863035 15.1128891797912 17.461587001051857
Cd 12.302773245816171 11.85556867446047 18.42571693772335
Cd 19.582272020066227 14.174959605561073 19.506979484620043
Cd 11.332656289510963 14.251627431564932 19.81889940900232
Cd 9.639925120117773 15.95201276923672 17.87279699458705
Cd 14.245571325466459 18.842606444923213 18.135794012248958
Cd 14.771141580371559 10.773567033866996 19.430103725919835
Cd 18.376578562853066 16.95924163032783 19.263765774851503
Cd 14.532968831935685 13.889503291985568 19.99206683947169
Cd 17.15127146963035 14.909353914287228 21.131062938181678
Cd 17.26830570687699 12.28767495166277 19.78703205934724
Cd 15.416741447782336 17.037485633202795 20.083363467606333
Cd 12.41902255220298 17.002448608819375 19.761525106484516
