52
Energy = -23.36347898 eV
Cd 10.296093873827633 10.588461538914313 5.262057381532042
Cd 12.251868494387526 12.546948289179849 6.747888102301876
Cd 7.646330524958376 11.893276206058658 5.463703638646213
Cd 5.568678698750759 11.79172782885253 7.508904769238537
Cd 8.136808485561511 8.67760947754955 5.942536925413619
Cd 6.378400374806943 8.932061854748039 8.347939508637355
Cd 11.864791940854465 9.761451849948326 7.700508003419147
Cd 11.851610766999158 15.178652337147547 8.122620738235875
Cd 14.633009837203847 11.790414741512322 8.214243779311852
Cd 7.291511509439515 13.035124385264849 9.641270747889907
Cd 14.584614420231368 8.677075114346108 8.508778463705731
Cd 9.460986129580284 13.411084806716985 7.5196375711301595
Cd 14.501754540307056 14.63808154585356 9.147981725380479
Cd 4.61970277269014 10.475829009322052 10.085828057294584
Cd 16.9923767630561 10.354078233608455 9.408660114333165
Cd 9.27070449990059 7.7005294510671645 8.637549691260071
Cd 13.841414332602675 10.408108430179132 11.050408728310197
Cd 16.278239676315184 7.993713595714868 11.035511001124645
Cd 9.050909476720376 10.70857343956999 8.685285173858533
Cd 9.72288990905434 14.889394092140638 10.195489915761248
Cd 12.140641579604418 6.979864937507344 8.7646545016909
Cd 12.531652433611894 16.002867672675848 10.937202812439544
Cd 16.356004035279415 12.947567193032084 10.640995815830927
Cd 11.763824120746312 12.389568806537266 9.892190116688592
Cd 13.507051993778628 7.063268788975911 11.394773525215456
Cd 7.8107295577871705 8.850303531461506 11.154843045572512
Cd 11.032796470781644 9.404255273778762 10.841379281946619
Cd 10.582393571452162 6.324211023603712 11.2229716512476
Cd 16.71655259398171 10.541410935296437 12.581488851247842
Cd 10.363125340766167 15.978764385275477 12.936724811108675
Cd 9.352524930414846 11.763928869436487 11.560269937667272
Cd 15.45468349899786 15.640025652794593 12.04999873595915
Cd 13.484096439576048 13.119423386434251 12.197459354344167
Cd 7.13388284814339 12.663904139692097 14.726546776538083
Cd 7.750093436167461 14.459274326264811 12.364468168130278
Cd 14.979031783153435 8.253179130163682 13.728367021298228
Cd 16.508010019078544 13.285133088032923 13.607848562971709
Cd 8.339112935504168 10.111065881685356 14.043237823964972
Cd 9.174973003945837 7.424432126131464 13.487124755652237
Cd 12.118914886370945 10.255837233206217 13.465575252191012
Cd 12.08182078768586 7.126030057920712 14.007121524939935
Cd 13.134810836151805 16.14910919801526 14.023197573712821
Cd 10.968001422687086 12.93919667937214 13.638059310335956
Cd 6.284165205291457 11.585701780714249 12.12233315624161
Cd 8.986535586872325 14.860136418715255 15.298530664886243
Cd 14.988465465101557 10.993371564657764 15.01019385191023
Cd 14.365740765673175 13.859640047363422 15.48062625297608
Cd 10.455800671181922 9.045691716120096 15.883728339629632
Cd 13.40318251581557 8.657495835616889 16.26980629211624
Cd 9.625093816127851 11.902465772975344 16.307849690445714
Cd 12.551155827580695 11.468105975162919 16.689830749849612
Cd 11.647940374271714 14.338078124511688 16.27930353529353
