51
Energy = -22.7223185 eV
Cd 9.072402463580884 10.945450916298581 9.627298388631086
Cd 7.459139117195458 11.783103989003438 12.133830442756663
Cd 8.286779179861682 8.997783288964166 11.792886322214873
Cd 10.286014791568759 12.987447318300305 7.597479739060439
Cd 10.825642600191296 10.071614672778802 7.35804917702697
Cd 7.8077252149154335 14.623139708893657 12.816050789403343
Cd 10.778422044394969 7.459697419518411 12.51600563021645
Cd 8.467382068076114 13.867826346293521 9.794926676761559
Cd 10.1691674128016 8.054186300681607 9.638067287389783
Cd 9.034631019530755 9.463134758001562 14.60434934636779
Cd 9.03206268117256 12.519673076589942 14.688370098832232
Cd 10.82041860889953 10.826735776130636 12.385975125617627
Cd 13.196737789173033 13.734833704774003 7.513564074288853
Cd 9.729767589908546 16.504902767640942 11.155578474587399
Cd 13.720335741332418 10.752459835215879 7.350678965236438
Cd 11.078524643179838 10.875297268214203 16.27910157425508
Cd 14.753616894473804 6.635071314519883 9.793034633926032
Cd 8.488455727330617 15.646332924953674 15.62886111784254
Cd 13.60526646740225 6.570502809846493 12.503378201637599
Cd 12.76741714591517 7.884371700233611 8.090549151672443
Cd 8.00851711541469 17.610956525560297 13.330027225569525
Cd 11.627774195822232 8.032381450912355 15.348909122869543
Cd 14.721628943156142 11.856581642892037 11.906978620845447
Cd 12.838400898425462 17.299523205837456 10.819041047637024
Cd 11.16060970962616 15.683453460263351 14.02861391098208
Cd 17.473835037224234 12.128636512309924 13.4117567551887
Cd 16.075330201073125 14.829270043238534 13.888415094218812
Cd 15.61847718640127 12.480687791728263 15.721013351259186
Cd 16.85856026756754 14.320654942745659 11.07339151570793
Cd 17.69800360466201 11.313998894166371 10.636785189408457
Cd 13.879703935871326 16.890040903452086 13.723998308546323
Cd 14.060784323998488 9.972971863124663 16.774139444212896
Cd 13.6194960129452 14.552698754634322 11.80479630430829
Cd 16.618789965645032 9.69170974209622 14.891179169021935
Cd 13.244755490070157 12.597385979009909 17.631666028264526
Cd 14.097982271878264 15.099084336377917 16.263099291818374
Cd 12.612314958154307 12.921816650310085 14.174965537728053
Cd 14.804859377304348 15.570540984362163 9.233993379284879
Cd 11.198978140054933 18.703357296978933 12.90843414733337
Cd 15.599312859477639 12.601428957631228 8.890888226858092
Cd 10.860873511768917 13.96260826825395 16.5816428126792
Cd 15.85772204375133 8.780253082118941 12.1699203905269
Cd 12.00330643943654 17.13458371823667 16.765246905634758
Cd 14.61463399044447 7.474223340710295 15.200276744971697
Cd 15.722522771363225 9.519016947458022 9.25034915956998
Cd 9.813133286074036 18.481206303868895 15.515571745554658
Cd 13.34367568419738 10.146096077506812 13.807152364741057
Cd 12.959935770071294 9.360947426185332 10.83680451646538
Cd 11.309017160893584 15.551399438176214 8.873115746193182
Cd 10.644607048946606 13.707664640871126 11.917068110038704
Cd 12.351342962000176 12.200049286754908 10.031518979460865
