51
Energy = -22.26690764 eV
Cd 9.26760129129719 13.230909116598799 13.432842182753571
Cd 9.84819313849277 10.446161581347793 8.439788132715144
Cd 10.753861692299806 13.260845665626245 16.99963494335941
Cd 9.767368356940251 7.49538454475839 16.17908751059034
Cd 10.16282436740821 10.135326740934536 17.445278825799296
Cd 13.47912780214712 6.733276143923462 7.873802350620868
Cd 14.145068773411698 16.23381045280975 14.20822556567637
Cd 10.944425977788166 15.18966191678558 7.732292265015003
Cd 6.960836663972317 11.236157110224175 13.456373586346666
Cd 12.845265643379493 9.961669099860861 9.706496532576418
Cd 12.76436573221031 14.617920435569353 11.985134986526447
Cd 13.589081930129202 15.8936733892198 9.159491741887074
Cd 16.270856227610604 9.567206671338576 12.451652092929821
Cd 10.153386919411293 14.394033776452902 10.707398636024273
Cd 16.189076372086188 10.72005232910071 9.63405835673337
Cd 15.115301452426507 7.85297203393767 10.27381185598111
Cd 14.395581014902271 11.723902640272588 7.318368989900794
Cd 10.722161498234218 7.58789267261342 8.16228014413525
Cd 8.262260963048966 12.147091062365071 16.042465648255334
Cd 10.984244762336006 17.328260507242845 9.878207353793067
Cd 11.04673362012826 15.310042057434371 14.87270958881387
Cd 8.698169846850725 13.10564435565867 8.376542033685016
Cd 14.212027424562 7.202899584933063 13.178952087769362
Cd 13.844550375718542 18.132669938759733 11.508837012064106
Cd 10.316806669487862 10.406706012406506 14.310140764229704
Cd 12.353124692645304 9.603640840712007 6.651539042719898
Cd 17.261047123271073 13.183486716533572 11.729583766763405
Cd 12.951099413910132 11.232632545403206 16.75080398086021
Cd 7.974035961310764 16.900546228200593 10.496746541841587
Cd 12.495274464527117 12.914438053485963 9.42842466511132
Cd 13.556298159620965 14.239858434860475 16.340429183906117
Cd 15.050582268514388 10.559138607584686 14.83845770146191
Cd 9.645278296127053 8.534603531784043 10.883672388899415
Cd 15.653838072642156 15.701985875593873 11.458838527258022
Cd 7.406216681915289 9.31788353599638 16.17279980937797
Cd 7.238322200271816 13.718639214602632 11.051983529697184
Cd 11.437952638108944 12.49242504102089 6.546497733239331
Cd 12.264130333984145 12.524301905973315 13.912925678654645
Cd 7.599019383215078 10.819927557923585 10.528764996851038
Cd 10.568985172141167 11.461092670454695 11.341414377514742
Cd 10.950209137272342 7.287361430715925 13.457883498459573
Cd 8.540891777942267 16.148973429091498 13.29450303966164
Cd 12.278115005260966 7.047371222145045 10.77422205266333
Cd 15.649854892549362 13.714304860872891 9.105576040430206
Cd 15.322922627860645 8.883321314203613 7.285026823123031
Cd 8.152404857726923 8.456261213642774 13.42015059215833
Cd 14.284589809914767 12.035259961872976 11.68322424665448
Cd 15.518820688475925 13.456580296447465 14.184783637962198
Cd 12.689333946225394 9.768009752496662 12.616979719569084
Cd 11.336151022387702 17.34321352156257 12.81008356861949
Cd 12.778075235929007 8.436324776672917 15.596564048390826
