55
Energy = -24.39024019 eV
Cd 18.042842773820247 16.784104726144264 11.069888216242877
Cd 16.57383203037284 11.816066669401227 11.365062321637112
Cd 15.727600456820966 14.696773485696896 10.662921276253096
Cd 18.710896997501678 13.966760647917626 11.023683013895276
Cd 12.991561673160813 15.452697139361893 11.365626366417294
Cd 14.35020909917118 13.272567370344182 13.03225424273491
Cd 16.510781775956712 21.610104614453967 11.839839291448301
Cd 19.774659124156337 17.259321058377164 13.427588769846581
Cd 15.176726308611627 17.652064771468687 11.411671922255195
Cd 19.460014206296197 11.504563767401281 12.345424216149864
Cd 14.909451034422128 9.703477601003016 12.517949011789984
Cd 10.83286504656809 16.167269648660227 13.163344833002872
Cd 12.484999785556644 18.513006018447847 12.352546978536946
Cd 17.694104214499017 19.140243719106838 12.77545920924329
Cd 16.679743947269106 15.399201139974814 13.632970429527129
Cd 16.96857389845221 12.43183736435683 14.562740627891253
Cd 12.94122274352332 11.046482655505129 14.759762282109556
Cd 11.456841568410447 13.447449520160893 14.113249610421619
Cd 17.835259629247215 9.475617374348095 13.701814876799805
Cd 19.67494059504307 14.289808536658004 13.90352845640375
Cd 20.056792396579695 11.400868307081293 15.224475966189956
Cd 15.498432727568186 22.100965586500113 14.704638352544581
Cd 13.62678141001187 21.280167923037432 11.8820362380737
Cd 10.486095566469398 18.460240630950285 15.045765972333877
Cd 14.549940963301914 13.812880244081693 16.09136577222267
Cd 15.009705158790824 19.044683640359228 14.33082876091189
Cd 13.92333463335789 16.20897156045206 14.465436395782671
Cd 17.37929728643452 17.738859289371508 15.526725189746431
Cd 12.33994776508394 20.797144905817394 14.571289841849856
Cd 15.387212278970743 9.565154907200622 15.447872051131055
Cd 11.21361017942139 15.667800846228005 16.115840274441112
Cd 15.937265845892254 8.483101108596234 18.2178323998233
Cd 13.893655811155686 21.600702457525294 17.152805393226547
Cd 20.316243694266134 16.67222700505952 16.221530541820343
Cd 13.50282742258419 10.50456359953544 17.694662456492054
Cd 10.838250053462476 20.629912681066646 17.11023164066669
Cd 10.260984468950356 18.037791816920894 18.544572188393776
Cd 18.76174431307239 18.310690296048982 18.131267429555983
Cd 13.206148842109688 18.163033795255224 16.714554377925293
Cd 15.306952873756916 16.273624897818795 17.532037134558387
Cd 17.611592690207964 14.748911142216274 16.41443336156398
Cd 19.151437704197576 12.073335335102346 18.219493534488024
Cd 16.313393971453166 11.83753198927952 17.522352604278908
Cd 18.38628201659644 9.383671661571505 16.68587735427002
Cd 20.93644295696903 13.853183084171544 16.664507132890233
Cd 11.774831489952653 12.945301969796212 17.167520897221443
Cd 17.114458970614184 17.00747640309078 20.141359672693252
Cd 13.92474992004584 13.040132879894061 19.204255147212987
Cd 15.840126971188855 19.370902046919166 17.990806592967115
Cd 12.688278120961803 20.036966776047493 19.366893197125638
Cd 12.244687597401812 15.807222969279241 18.843242152722986
Cd 19.51444840301597 15.332914278118999 18.907556510296356
Cd 16.89196691150809 14.002434855112924 19.474344971283564
Cd 14.524348606617624 15.511848570083044 20.620887496736874
Cd 14.525299625944271 18.400059268397598 20.75807160072726
