51
Energy = -23.08517937 eV
Cd 8.58263114231653 9.020866391526486 6.228980400276847
Cd 13.618404558488583 12.378498044781878 7.295056031751219
Cd 11.569613902746925 8.858481596605548 6.4000248849622015
Cd 8.169117788815212 13.891149371036924 7.942497603418352
Cd 15.58217563694926 10.827155547407155 9.626072515096059
Cd 14.192095533232985 9.345921443343588 7.518013207509723
Cd 11.01056660241839 13.990358485534355 6.882144510957727
Cd 12.279382487358065 7.039360184723792 8.676807355331784
Cd 7.076167529530953 11.048444183435398 7.763633758397077
Cd 13.120544607840777 15.32240436085937 8.43186931153916
Cd 9.15361769548785 11.813141688516117 10.314174763619107
Cd 10.143129304448417 11.32399153786963 7.32497051253539
Cd 9.579455420738702 6.4409293557017815 7.302372374568183
Cd 10.008767149974082 15.869404999234131 9.236371236274268
Cd 14.970610980299696 13.735139333517022 9.994103809299228
Cd 12.288504520058687 10.804297014083813 9.561917375836684
Cd 7.958039462619091 14.655122429952723 11.019889327714814
Cd 7.269961507939367 7.9626571921214175 8.751459771837396
Cd 16.786940166236146 15.214802154885303 12.00802457980852
Cd 11.636322486419063 13.576575429725413 10.501089480871588
Cd 6.290140151079892 10.040252222029162 10.56602532166889
Cd 10.011794266290226 8.989957728819807 9.594506999726258
Cd 5.799424345296551 12.94496294323045 9.659454297694372
Cd 12.311760847235865 6.043541996453249 11.51225117525052
Cd 12.251407005715366 17.414014017942552 10.389606071938212
Cd 14.563245270593937 8.040856238807459 10.286701009960451
Cd 11.872088189343335 9.149558813223885 11.974187993820458
Cd 7.001990655705304 7.226409963952651 11.60121861320197
Cd 14.520021952113362 7.336918537724768 13.14685261592193
Cd 9.468941713464488 5.834164967596469 10.15165805018184
Cd 14.980825515153132 17.353471764013143 11.290085085780815
Cd 13.473642302827072 14.824959165228282 12.78241709240555
Cd 17.327140753481526 12.256549930372373 11.658679542346853
Cd 8.899119856662834 9.666511033089897 12.40887945100767
Cd 5.757447106946473 9.648510783544614 13.607858205988881
Cd 9.629404025478477 6.553251737563306 12.967022085520146
Cd 10.515050823796736 15.767117191538379 12.373564334639303
Cd 10.792751884906338 11.88064985458207 12.824942681422476
Cd 6.4074509107093425 12.38834280253126 12.519272692803069
Cd 13.734161461613386 11.845679942369724 12.083516855431219
Cd 15.79963086202114 9.890592097310616 12.816880086731318
Cd 16.246340240895613 13.316050525485721 14.227047615451298
Cd 12.098643722341155 6.736792328050146 14.611965367120657
Cd 7.265268564255679 7.435319350213673 14.785580503232593
Cd 11.24913654795439 14.35485237381186 14.931073780522851
Cd 13.617642147081801 12.545056376382897 15.131777426673926
Cd 8.079256961231675 11.167686958675667 15.052712135297275
Cd 10.003587383147066 8.745070398358404 15.318180438293707
Cd 8.555947148610267 13.865064888583756 13.845300194911633
Cd 10.90579223703123 11.485203674848394 15.88746241518899
Cd 13.088375784379624 9.647407770085758 14.727326169542877
