54
Energy = -24.15357515 eV
Cd 15.316161487847488 15.718893140906689 9.52388738688206
Cd 13.097743404264603 14.050123241814406 10.453338342635126
Cd 13.084925775679864 17.18339684309113 11.022691318101076
Cd 16.135111805145183 13.250449294641198 11.23470470887868
Cd 18.13838549690978 15.41886692710052 10.464755295731598
Cd 11.26241609514814 11.71710881804563 10.469648331625429
Cd 14.152546914915517 11.051421040022447 11.294466078975592
Cd 16.222484704607258 17.709130562368735 11.661511038128369
Cd 10.742745329618023 14.352453947502445 12.239360328150918
Cd 14.53471864642763 15.416072559607546 13.050876875471094
Cd 21.029964140286378 15.34603078141111 11.590130194469777
Cd 14.933673406078789 19.77602841078622 13.470982610672602
Cd 19.482119556801088 17.87362195025174 11.515356023292144
Cd 9.747991341688564 11.572715097713797 13.138238260397937
Cd 12.069199466348046 19.515099519132473 12.421691349941517
Cd 16.63157985433355 10.895469965334218 13.102520499084315
Cd 14.031413656681526 9.932707206781611 14.24672701725974
Cd 17.67575086812387 14.675435834969289 13.435316309744199
Cd 11.967964861514094 21.282098058328035 14.766265689941442
Cd 13.027712609234221 12.814475881689827 13.470869645202761
Cd 10.898938053047644 16.879733739017595 13.589291818362746
Cd 15.386740276016896 13.329268271710976 15.1317836877583
Cd 18.017020359060904 19.76920742474626 13.142402178000884
Cd 20.65592823866724 14.143588832584632 14.168743925160987
Cd 16.424400377240723 16.97173788573005 14.823933200057215
Cd 20.820471663268986 12.86366670044705 16.94321976413055
Cd 9.920074049326658 13.677880146007773 15.228326723418146
Cd 13.512767027071153 17.596219925396493 14.940161819242526
Cd 12.65323791439846 14.830422937524869 15.614400664326576
Cd 19.57478019524115 17.286113246116408 14.436220199189277
Cd 16.888152639246666 19.841684189927314 15.857502028524447
Cd 18.59416413712215 12.086275229659345 14.91839801757162
Cd 11.735754798966141 9.458456636287856 12.405177122812761
Cd 16.03925356529441 10.469363566018874 16.24255806125167
Cd 11.570228671996329 10.972500443882446 15.487237680364572
Cd 10.01781412542041 16.211259408343487 16.763225646873547
Cd 10.44251516305897 18.99772187561097 15.852835300638763
Cd 20.636557670676062 15.813096309666848 16.756421838144014
Cd 17.612086263151497 14.64356490082275 16.601929313276543
Cd 18.100114856385765 11.788313773164644 17.895204196846073
Cd 14.922139376205678 15.81531316721438 17.27082394959155
Cd 14.07344359584264 20.414533269932015 16.581242207270815
Cd 12.171106143930382 12.611242247650344 17.717096267964244
Cd 18.378813485643462 17.66865464759796 17.26711106661961
Cd 12.665167539711302 18.015269490308224 17.7949002514828
Cd 15.644759733999845 18.604652951345162 18.46952597013509
Cd 15.14941507966044 12.779406919771409 18.167672384072517
Cd 19.6493945010715 14.412387933808143 19.206973479549912
Cd 17.222285190922726 13.269515908649693 20.383000741603418
Cd 12.082545759252765 15.419686809953093 18.905475903559715
Cd 17.219897064917234 16.220578422926685 19.580854308652984
Cd 12.837731275602057 13.005365822340273 20.567400920855516
Cd 14.509750107961114 15.84170089898178 20.790168665241826
Cd 15.128241453852839 13.180316760239746 22.36574316774954
