55
Energy = -22.80316751 eV
Cd 12.357349106447897 14.398563688965048 10.71572357306686
Cd 19.467730645569358 15.584772672310702 11.339014019549682
Cd 17.053286968864267 13.392657407328596 12.628212960386005
Cd 16.4744663566713 15.815838239973967 11.04590642756706
Cd 15.080190183407817 23.376181849897584 12.133025522941123
Cd 14.015201242271434 16.445061058714433 12.42068549490434
Cd 12.129243758130743 10.671657722072625 10.963522079514343
Cd 12.817801860416358 13.759161839962143 13.795289626081741
Cd 9.87548541122276 12.51361615176786 11.031448385846643
Cd 18.099695857481453 18.160519124770158 12.031996034430795
Cd 21.69874833259495 16.447391574103598 13.234132179427364
Cd 13.126972579744136 19.007820266383703 14.016736503058603
Cd 16.998233755146956 20.88353794821058 12.026130740612256
Cd 14.534733399793442 12.334191360775966 11.620406028213704
Cd 12.867378431671991 21.579758551512274 12.679585727129698
Cd 20.368605216155263 13.601855765716618 13.489589675398875
Cd 11.053515719304833 17.382991799668147 12.808033548625223
Cd 9.901223276092065 14.766107381476793 12.887196090476616
Cd 17.841068157747756 23.800662160766144 13.034587335307254
Cd 10.234477565692304 11.58746972060807 14.006597551425093
Cd 16.02924739150964 17.94136090160791 14.248341880011713
Cd 18.125202616502527 15.717684727336684 14.279992859021748
Cd 20.628599805012637 16.220127675387044 15.97615258076929
Cd 19.347572523807774 18.62907191668786 14.726999013914872
Cd 18.424910232185773 21.507614336596284 14.77236946903452
Cd 18.433321914653643 11.858410915830083 14.824101221916795
Cd 15.381340759406795 11.864859584006862 14.744930926301224
Cd 16.775161417671203 13.062684055616531 17.05687346110794
Cd 10.398772084985552 13.984944979395612 15.739417736645922
Cd 19.834544679858098 13.477664860763005 16.860570323209654
Cd 19.55274055573501 18.200500062762423 17.971479069518125
Cd 12.982683320766919 10.479971463751982 13.88164772146839
Cd 12.498375048045098 16.531087406559287 15.6262865987211
Cd 14.452633384258467 15.73867952196613 17.906373317438494
Cd 13.238938877263333 12.989390865883868 16.842102398926873
Cd 15.357041910288723 21.016955330951784 14.702418989883686
Cd 17.26471188867342 19.670586101236957 16.79578148318974
Cd 15.292864112858556 14.992766875971666 14.990580634041567
Cd 11.335121228414637 15.194099102443172 18.188454091647507
Cd 14.39865110258788 18.756525928857545 16.80000939568515
Cd 20.880581290288983 15.68571653213677 18.901906655843472
Cd 17.856165889226745 14.43839045924666 19.46567827195595
Cd 17.301338645234207 16.197393512368116 17.032326178432072
Cd 14.844067438325144 13.042890071571888 19.34380975285288
Cd 16.654719485812798 18.149693971613758 19.297752916173124
Cd 12.027090150915152 16.1920221884747 20.791947030039744
Cd 18.878933832938472 12.552105230734519 21.894259344643988
Cd 13.686379531155774 18.25252004123683 19.65770503486184
Cd 20.76851797900835 12.65015810017917 19.593755314781795
Cd 20.88675027249055 14.857582849277257 21.780866980664182
Cd 13.076573128499437 13.642060903033082 21.700109425927437
Cd 15.37004617723345 16.05738784935237 21.0689175148488
Cd 19.137202276184368 17.372815608222094 20.868991406959957
Cd 16.03907856425534 13.223480716227796 22.10332257802951
Cd 17.95141421494205 15.447680623152271 22.762650472991766
