55
Energy = -24.09560582 eV
Cd 14.626184030240049 14.55078400399508 9.421757504876082
Cd 18.113399401007012 16.760353431531414 11.678518011692116
Cd 17.701503928634992 11.346276955843075 9.83275597165103
Cd 16.58682514102783 19.440081144809756 11.605199274738194
Cd 15.148227955432153 17.299181252796668 10.238501369904768
Cd 10.09993219787491 12.028938743013935 11.601735556563535
Cd 17.451268480584922 14.268066740669918 10.196376804391077
Cd 15.09485615163235 12.253098524839414 11.36135584161135
Cd 12.029150203810875 13.815617671244327 10.395692956805155
Cd 17.921895850922237 18.34946381173109 14.157199853641924
Cd 10.172719344458496 14.789614277824748 12.898896116724021
Cd 15.72586390548564 20.713092248021237 14.125422649885572
Cd 15.383756795614376 10.02688701036648 13.657831877699895
Cd 13.613287756837968 19.17071324256697 12.155145765668973
Cd 15.602869768818644 15.39609796885907 12.657254596474933
Cd 19.074139712665676 12.955472913738735 12.35073806938453
Cd 11.129506959711222 18.39584975593458 13.715946835643853
Cd 12.669413956210832 16.331935584726963 12.041748001377949
Cd 8.747551841486667 16.89851786842465 14.518904063218178
Cd 19.004611667806614 13.23544771149929 15.305503351688092
Cd 18.026320108771603 9.93071431612877 12.315361461734234
Cd 19.91852184245253 15.86366855720876 13.88683464100674
Cd 13.291724772973488 13.66307645493673 13.531065242952069
Cd 12.659744133580936 10.771040180289155 12.514596312971223
Cd 14.814331237663731 17.584918518414884 14.541511806464271
Cd 16.213702081473016 12.898264912483636 14.255716751124897
Cd 17.739601120650065 22.645947149258692 15.187499035117474
Cd 10.660276487585996 12.10712890157372 14.613101499913602
Cd 17.350383530652078 19.860493556640318 16.64481021268534
Cd 12.401991459488919 15.882151753955172 15.27281076486136
Cd 12.947340641810547 10.625754786982032 15.561150895402411
Cd 9.437411254928323 17.00341658186531 17.391799270566352
Cd 18.356387829554148 10.22341965871294 15.15768023793985
Cd 16.83180142928308 13.797134006618792 17.626456935495902
Cd 12.889021953698856 20.607314903130263 14.784042589669777
Cd 20.008494685761843 12.818552638732388 18.044513416345435
Cd 11.976778261384336 18.4112638990832 16.736940909467926
Cd 16.996325427380896 15.59890945526732 15.303225332667523
Cd 13.905264241587409 13.588644928898338 16.497036481659514
Cd 15.571211887039455 11.004376708271298 16.68305337248762
Cd 9.542085781282333 14.31187646236825 16.07626049791865
Cd 18.13535781572756 10.455092008311283 18.06555459090151
Cd 14.913959182013302 16.541875927510585 17.345602089557044
Cd 20.353780997579886 15.606702074762065 16.816941223394995
Cd 17.99400627113963 17.252051141898423 17.687911522213064
Cd 18.84601617281388 15.060731639026086 19.63394238415178
Cd 14.471076950874359 19.87973006898327 17.23999245553464
Cd 12.763904026791725 17.42160850164044 19.512119679704107
Cd 18.443621414223905 12.057784165839594 20.55267681202698
Cd 14.15714959926509 14.337408899351118 19.48995199463044
Cd 11.561609751339335 14.935998585426688 18.245438544971172
Cd 16.277798381486377 16.705875693278543 20.223101939678077
Cd 15.6033174245125 11.647250800520885 19.614626276746133
Cd 15.078643969789448 19.30615533245735 20.075919567595893
Cd 16.45368065566698 14.057783800229323 21.44387660929125
