53
Energy = -23.64797956 eV
Cd 14.693207961144566 16.090171596854223 16.45813522749877
Cd 11.868832693650816 15.709127532507031 17.3184325056204
Cd 12.540301708156 17.224512344240825 14.674496672965667
Cd 9.885266851475778 15.922524478257955 14.976371246707593
Cd 12.778521884357442 13.487778919516058 19.62573910446153
Cd 15.490595447055721 17.57342597025102 13.88228987122254
Cd 10.753790753619741 13.014668999025231 17.18492139339243
Cd 16.80870843198921 14.178077950974902 17.48706365394992
Cd 10.881003622850672 17.619340809566722 12.018939860260781
Cd 13.51697393189041 19.057515713303353 12.223569311975371
Cd 17.549397378280958 16.235502338352372 15.556794271008203
Cd 15.770099973268769 13.310207087707864 20.00818999635675
Cd 14.735460708666348 10.643447326115542 19.353233751977026
Cd 9.140163788560539 15.247159836277257 12.161682496296434
Cd 12.07108111536332 13.680271291620516 14.245003192378725
Cd 15.088388290338624 13.952594519808082 13.820725321433443
Cd 12.677312264574255 10.581705109185515 17.194104121510097
Cd 8.985796027469474 13.11876915892165 14.404098441465495
Cd 18.173312923451213 13.44564761233687 14.701488064369086
Cd 13.204487545803913 15.449215768774032 12.16833161637543
Cd 17.70100179364752 15.711772563147669 12.650378304069674
Cd 10.034212068080961 10.590860006656694 15.609219472324504
Cd 14.030966392444384 13.149220778692861 16.606108667498468
Cd 15.657599587334188 17.0440367257657 10.957574901955882
Cd 12.965428788556498 17.66918183111514 9.621890648482479
Cd 16.554313536003747 11.425211435348197 16.35812898152725
Cd 14.614281572886838 9.895171040643268 9.070118751360095
Cd 12.009791756834055 9.436043673874595 10.25597727141146
Cd 12.410097862611876 11.87350924962219 8.502208126557855
Cd 9.555216693710237 11.351262764901486 9.689349080228
Cd 12.227120572771343 7.962861010294057 12.749551385876714
Cd 15.543307099024886 12.544096514718387 8.221895700534658
Cd 9.28911039686229 8.828632544282451 11.30817495308117
Cd 14.974977439402116 9.192840076461035 11.941412702121893
Cd 10.500890039342002 13.865600062203084 7.195314361092891
Cd 13.52522007204586 13.647237253451934 6.191742482479534
Cd 17.085306191908735 10.849097675777932 10.381674451044805
Cd 14.85795666718906 7.665558733472971 14.473022695107948
Cd 12.077479807291 8.223190281016278 15.640559258437774
Cd 8.256914683730338 14.133530319285052 9.101683766696073
Cd 11.136286049371499 11.318283269530847 12.688365312099487
Cd 13.893230232857812 12.171444249495826 11.520492326644376
Cd 9.471697623209868 7.970168949160451 14.166276141202646
Cd 7.615856883658761 12.743102626613366 11.552964225430856
Cd 16.719634977656902 11.275130605640145 13.286083664442966
Cd 11.386020514836211 13.680495621967083 10.689069862731925
Cd 16.481325358339248 13.698619767295773 10.928021053282825
Cd 7.91233457313367 10.476673090530044 13.337584994337135
Cd 13.733072917843295 10.898053664213457 14.299237634482347
Cd 14.156358225269011 14.940160255069282 9.294433078514441
Cd 12.428399836498981 16.24444304288862 7.009958523631276
Cd 15.427233837868826 8.828269023441209 17.01723254124576
Cd 10.295230971897471 16.295155255911858 9.361262884924923
