55
Energy = -24.70737838 eV
Cd 13.586291305203568 13.489002182362302 9.470673983980225
Cd 12.818945139493863 10.391472255777051 10.17971678177454
Cd 16.808675053613698 13.489327742760139 10.709026632549902
Cd 11.746749779049372 15.524129451885553 11.132260187726752
Cd 15.598191370094879 18.722969952381966 11.890259832127029
Cd 15.519786948913678 11.1990953746034 9.187645954020397
Cd 13.490416675683226 10.110802280681737 13.093965098390855
Cd 17.383309207471754 16.321224741506047 11.439141702829733
Cd 19.452409882371146 14.306770993004731 12.067579996873938
Cd 14.601484416420025 16.084218728289297 10.51126493699351
Cd 14.107927490154442 13.079246242718307 12.404154693829637
Cd 9.140360090767691 13.853730976896712 12.825360117537898
Cd 18.53103888137005 18.82219448934005 12.563301849710854
Cd 11.014959802185665 12.572398137839564 10.911387917603706
Cd 14.530113902824862 12.978582577310615 15.329747342922627
Cd 11.312785916169727 11.943490896330113 13.913535736889738
Cd 17.157276033128607 13.153183585531094 13.86195850614646
Cd 21.515201812254016 15.4719862136103 13.730102459296523
Cd 14.480062497257249 20.217288415318837 14.185626790470733
Cd 12.871613459394078 17.765291485843953 12.853988854874228
Cd 18.2177650411772 16.22148716799805 14.459243993347462
Cd 20.987935600086015 18.349878159173688 14.255739775447214
Cd 15.21064766427385 15.651485041869728 13.54124032656146
Cd 18.431144233392235 19.64438054006822 15.382400942934616
Cd 12.285623369766144 14.740296918207646 14.105096885255977
Cd 9.861156176533221 16.71105358417958 13.393869580299349
Cd 16.19977221823718 10.747383602596368 12.04804934172451
Cd 13.133100530677105 20.238524858739694 16.79971950233855
Cd 15.934115820444568 17.889070276899243 15.378715107405613
Cd 11.220357669844349 18.56140718163027 15.239334333753686
Cd 12.847512779288321 10.356192463856674 16.033995666816764
Cd 21.404351396161253 19.28807137781549 17.221164062166707
Cd 13.590110426922127 16.350187476359306 16.15114513422699
Cd 15.972297372240856 10.114067042519606 14.920502868169836
Cd 20.47775490886333 16.415469763529178 16.608231884848895
Cd 10.25663124466328 15.787243302514703 16.213670979209407
Cd 19.771575229572512 13.702336405586653 15.583891484991995
Cd 11.435072383412635 13.04206483416182 16.768958756036252
Cd 15.266094883818464 10.83143576993537 17.785067174220675
Cd 16.445920662068744 14.925554027154147 16.557547852965172
Cd 16.114354073344643 20.889987399321903 16.8967632101116
Cd 18.817695346811824 20.38393194559421 18.288688340933902
Cd 11.745039588153924 17.858244891945574 18.132383828408816
Cd 17.81309800899552 11.836273948097288 16.615249074353027
Cd 14.052357793700855 13.994030975162868 17.995748397159954
Cd 19.091270948212085 14.56210679473458 18.540002988243124
Cd 10.79391368107708 15.109320951455706 19.046407187527418
Cd 12.59694058646425 11.172941839844322 18.9243626683422
Cd 12.098984771574077 13.271483026930694 20.883767915414047
Cd 17.93580944487173 17.431203853662044 17.754383027859685
Cd 15.005301016838596 18.258232705706362 18.30634183862359
Cd 16.484009050420518 15.85903693259983 19.765609802255536
Cd 13.505489606576218 16.17705305562006 19.924441766458447
Cd 16.79227854245632 12.8258605198783 19.247638659753513
Cd 14.935079530509176 13.704455905930839 21.36808753055628
