55
Energy = -23.81671959 eV
Cd 17.73610598291166 19.26688336037483 10.032296842923682
Cd 13.78547779229782 15.820997286992439 9.643666708722963
Cd 16.299936592245707 17.109558335223593 8.557830995455442
Cd 18.9872400076012 13.787622915852076 12.046087427359968
Cd 14.738001115779237 18.91805512289712 10.457479074922865
Cd 12.34800630744709 17.401497724995263 11.680707137859502
Cd 16.699306196720055 14.539957039594913 9.840559197903449
Cd 14.175218519977141 13.477282866562701 11.573104019847912
Cd 11.43715895893183 14.607534680127248 11.620673513116783
Cd 16.726400414878476 11.938836313429363 11.096175194224369
Cd 9.810119339838272 13.660455136461504 13.827218216681738
Cd 18.620426300698835 16.58998719521041 10.99603383492228
Cd 17.335143472655187 19.143583642203502 12.960176900474242
Cd 14.838282528640592 10.468190289962362 12.810456439582694
Cd 20.384678170733327 12.414805187021098 14.192331168248964
Cd 14.27557064868491 18.914213038656836 13.42476896692147
Cd 18.566844425019195 16.274383437324946 13.985298430255254
Cd 12.533147351355945 11.96380323118686 13.740824327289188
Cd 15.688711774763643 16.346672070860908 12.26835727973658
Cd 11.746462924772885 17.261459306635704 14.535494507555029
Cd 21.26531656779493 9.512809296821109 16.2904959437863
Cd 11.349193838012768 12.123928373942203 16.46267135075198
Cd 9.603662898923343 10.584298338041425 14.262374983884886
Cd 16.27386131091636 13.835405942446341 13.80327212608655
Cd 20.726885109123806 14.869313037401856 18.66438984382595
Cd 18.269372897634945 14.081321552935401 16.002601441354976
Cd 18.675026809829237 19.236206350348105 15.61621981652039
Cd 10.441672585144518 15.144894606144037 16.260412956923428
Cd 19.557906130501298 16.81636514956995 16.858214452200716
Cd 17.688175425667435 10.999974629721768 13.682892539273016
Cd 15.326786441705654 11.337910381647232 15.662763180834398
Cd 15.311032597032533 14.218575077697217 16.74178200537142
Cd 13.97858181175073 17.021297848509647 17.408001039239924
Cd 15.917363684130137 16.811147737179958 15.259492167449581
Cd 12.90219838189118 19.64326941633301 16.01241008597396
Cd 21.256495841321456 12.555864695894359 17.02593703903191
Cd 13.485181589972079 14.926719341224619 14.305387590456084
Cd 15.845736813430621 19.985917488370468 15.731734289443757
Cd 18.819826158755397 12.568855075686114 19.118973199601715
Cd 11.75782931334372 21.983841540529657 17.538035996657577
Cd 10.338145885778458 16.07315609048438 19.193335485930398
Cd 10.479743667379672 18.183928994509845 17.048844670151805
Cd 13.141105113838188 16.37421387470796 20.245473954731064
Cd 16.4441223682433 10.833834510107069 18.560668183864568
Cd 14.700355619331958 20.91071409617227 18.33038293367048
Cd 18.531662261458635 10.928638710105359 16.47512767067815
Cd 13.599502666480385 11.353615659581662 18.19910888761455
Cd 12.64305769759849 14.317480764847234 18.169818809995785
Cd 17.543523992048428 15.31312535931535 18.68554478174302
Cd 16.89151717642858 18.170430264796458 17.97668721225798
Cd 12.244211094143301 19.169735902838585 19.284429688468453
Cd 15.987492910897828 16.042913826993622 21.14118290337609
Cd 15.377943880638075 13.422814536175785 19.69573319183089
Cd 18.142033203543058 18.238177176639205 20.99871653084001
Cd 15.11860973344191 18.870898474792973 20.36471516626155
