5
Energy = -0.49369454 eV
Cd 11.702383446219242 13.20463041403639 11.601805878318485
Cd 11.892353142833407 10.56998342232415 13.57031157017351
Cd 13.85947354044982 13.129378816128101 14.048890741699603
Cd 16.18147794019427 14.640162332995022 15.766951317007857
Cd 2.2949988745868057 -0.007553441492703713 1.0748326952793352
