51
Energy = -22.27148145 eV
Cd 10.222040021735857 10.130476228461985 5.728861589175395
Cd 10.3202281121138 13.052177066930131 6.886638944700075
Cd 12.957286562189234 11.341357269409587 5.854358526227825
Cd 7.7246049212333 11.587512086732064 7.283949127896411
Cd 13.048041844767887 8.580152970185777 7.044464472951789
Cd 8.941661151316778 8.763157441541576 8.092247999214287
Cd 13.292946403086106 13.890966424605436 7.663900854210914
Cd 15.034800681597625 11.551343180442643 8.208926960127556
Cd 7.95717390381001 14.559783506226987 8.721480738406632
Cd 11.393297182291695 10.722013451135451 8.658152410172656
Cd 5.786814509955058 12.594327556326919 9.433530562113177
Cd 16.319608383618846 8.911535579653727 7.549775062051855
Cd 6.9888456405741355 9.954319315941426 10.04009615985846
Cd 14.873522873673503 6.3418422215532315 8.31298581789618
Cd 11.311345560335104 7.527149575952724 9.432504221132241
Cd 10.923770966602437 15.059831059622743 9.023735209195797
Cd 13.740245391739446 9.500301566804401 10.004999478569404
Cd 9.211991740542938 12.018357039194377 10.118515292724245
Cd 13.710824250952067 6.75501642536635 11.086760704465807
Cd 8.74331757173018 7.813586533720917 11.0798276900867
Cd 15.693357971199397 13.774827313712928 10.355675097993633
Cd 8.879485850719583 16.706897245437485 10.785252135920201
Cd 7.291115179109778 14.22224630716097 11.76254292141178
Cd 16.322441160460375 10.813529922196581 10.910826337280554
Cd 12.809658589932273 12.482086318365685 10.611469554582284
Cd 10.999295594008569 9.923453356761714 11.621702564461398
Cd 11.602225272165446 16.843958787180163 12.092388070562096
Cd 16.646445742280733 7.753626321626663 10.448909798408138
Cd 13.7352861255737 14.688740953026784 12.741444968451294
Cd 8.86746604942463 11.398705708669938 12.986955394915904
Cd 16.51146619293401 8.824481759575932 13.30109465726674
Cd 15.805008451005262 12.603391169277883 13.278633966450263
Cd 10.644933245002678 13.891769746242163 11.855149697106636
Cd 13.630132392718933 15.899449092499381 9.955750503346716
Cd 11.159148596484341 6.979533438990669 12.6458175339527
Cd 13.75660933033973 10.432188658137504 12.765725308801066
Cd 6.580453135624532 9.057260820187254 12.862100305397803
Cd 5.62038998780046 11.84296324869335 12.407524542187318
Cd 9.201667898173492 15.490095004380617 13.879603382709865
Cd 8.979545537815627 8.274584003683502 14.278292267554274
Cd 12.071946915969772 15.594322433099485 15.02945497154082
Cd 11.65977834137248 12.157640144579855 13.937041886389718
Cd 13.902191721056187 7.587425940935044 13.968976195513934
Cd 14.075913932932847 13.402175386646617 15.637010980631587
Cd 14.837263415738091 10.372040401359719 15.725802901573203
Cd 6.2905627154727775 10.636741408648465 15.42815513690693
Cd 7.336025877614558 13.333033053359244 14.88600418506561
Cd 11.675629697452527 9.217222714984704 14.968146922715903
Cd 10.145495693725465 13.67695241341428 16.25654503301075
Cd 12.227978840558853 11.441192269179385 17.06087466298803
Cd 9.314307315458606 10.797852602172151 16.10501073771715
