53
Energy = -21.86450827 eV
Cd 8.780863296366745 12.844419731794575 6.9235781807535055
Cd 11.583537712217437 10.051539184664252 6.590651589947117
Cd 12.183268647109358 13.095973862496164 6.646990419275366
Cd 8.716996239512307 9.689421504389609 7.636903252939843
Cd 15.133645298020733 7.4202151210065175 7.7512668184606754
Cd 10.108861921993885 15.360668461720485 7.564875937981934
Cd 6.57257704478882 11.772726862686662 8.634872681280532
Cd 14.548024042816948 10.42466696297266 7.051564357475994
Cd 12.018347014660156 7.434992634003906 7.860543385617911
Cd 14.694337210343505 13.156411677813992 8.309605474177255
Cd 10.699635543395864 11.75489371492251 8.970148481486397
Cd 9.625117581326167 7.648412310706274 9.633377534587538
Cd 12.862446437695011 15.59567037874622 8.62354375661152
Cd 7.04623915566572 9.31027931546657 10.357051632195168
Cd 13.225845394551454 9.6212198443352 9.777269240652403
Cd 7.527403782971351 14.65273832548032 9.262082264365398
Cd 9.269142969843568 17.717554315380323 9.333446460172626
Cd 12.884213794964845 12.63378675970865 10.632647559337244
Cd 4.699152875441865 13.185272032275186 10.576594128253547
Cd 10.569541940586653 9.971141283379728 11.23677508203564
Cd 16.5196139749859 9.817013519105558 9.359075666653474
Cd 13.407860558142392 6.355512185936796 10.315102840313493
Cd 10.42359756083393 14.352872429860756 10.619688866676684
Cd 16.709375476605683 12.67459966534221 10.529042628233224
Cd 8.437066901345148 12.136358097812773 11.09862234847448
Cd 10.829001168431882 6.183862072495283 12.003283211527096
Cd 18.09401652662446 9.700461634862618 12.255297107667134
Cd 6.5119286885218255 13.920296544634871 12.928338284582592
Cd 14.808104514377296 10.94161771202558 12.214308953271473
Cd 12.678233494047529 14.869536290750958 12.826741665170758
Cd 15.736941184540463 13.747311373498384 13.20979287517571
Cd 11.613998127332037 17.130707016065703 11.318171427146767
Cd 14.893381202850277 15.270230194537222 10.733646208751304
Cd 8.27003776781619 7.86426464561495 12.557630650617092
Cd 12.776279786048347 8.720561544769847 12.778235677447022
Cd 15.542726083477497 7.985061690940951 11.552219841395015
Cd 8.295463470710187 16.31686857103247 11.831999127397323
Cd 9.585183848369251 13.728501051697297 13.513627510963534
Cd 11.047091622696904 15.92521553818618 15.211178653224747
Cd 6.420480741492928 10.754357356462112 13.103760718494273
Cd 11.921876883980053 11.815334144801081 13.293341000949628
Cd 13.546867661677563 11.044733480472502 15.855708650907669
Cd 13.596251397108343 5.569219518710542 13.496587276358902
Cd 16.20513941587885 10.148751850801096 14.699491129215103
Cd 13.794450455285391 14.03309243835004 15.514984285230495
Cd 7.95270521536693 16.328759938274903 14.858682507732567
Cd 10.483887236480893 7.554112097880521 14.673120245646093
Cd 13.997017262983446 7.952742792094972 15.401874104339303
Cd 8.061363264005438 12.241900916523422 15.863453401847076
Cd 11.037001797271659 13.023410413800876 16.356221398763946
Cd 9.242621383747926 10.404682162761366 13.848825360619008
Cd 10.816860009955827 9.940736275885698 16.398344343572415
Cd 15.355360355608306 9.566293492933244 17.76679673689994
