55
Energy = -24.72320999 eV
Cd 13.871543172711078 15.354486181097846 10.30631255289596
Cd 16.61702778091829 14.46162967770069 10.937280168518848
Cd 14.137909835449937 12.64339803256582 11.628611736849765
Cd 12.985654600770578 20.688284120884454 11.07904753245344
Cd 15.842372941423102 17.482595911580866 11.300845267451566
Cd 12.80371523218104 17.72239952962718 11.676690347135082
Cd 17.359403833551717 11.593062102049124 10.559451019582184
Cd 18.565212204371996 16.602731899076993 11.945535076230515
Cd 12.606935238357524 10.152740908255312 12.93329971867632
Cd 12.029490480386754 14.78968961486094 12.52270307209801
Cd 15.355066856374295 9.777577022558145 11.866065246631068
Cd 15.160183669775009 15.423647640656517 13.536903633534997
Cd 19.284323576615524 13.693880920335912 12.061930225255031
Cd 13.440831633736499 21.67121562636296 14.020350305913407
Cd 10.459156335474171 12.075777117615324 12.78731127677257
Cd 11.200006473040169 19.901811654771546 13.41817315029893
Cd 14.269523912685203 18.111964272747144 14.334541834428743
Cd 16.524187017333126 12.737560857130896 13.641241252791861
Cd 10.92225339503945 17.142114237128034 14.124037205071307
Cd 13.201387184162625 15.678584347918907 15.868622989498272
Cd 13.377350701374555 12.95514441609968 14.64105524416585
Cd 21.0804548609152 16.889606750267852 13.418400206549324
Cd 18.217505064838893 9.917306377682582 12.845220198360133
Cd 21.757473082227843 14.031348112835943 13.797111859251807
Cd 20.72986848243467 15.381133147270287 16.201531164394677
Cd 15.636748647723032 20.205035000662527 12.431570748655886
Cd 17.427814069325898 18.254781326781448 14.22675375349043
Cd 17.98397713441432 15.189627558784455 14.753786976212098
Cd 17.56007895649972 10.586812872690139 15.71459688684705
Cd 9.795212240207501 14.368176853727427 14.515729398460913
Cd 20.198840245516944 18.383758039914394 15.747688756020173
Cd 15.810797757408245 20.8966211092402 15.496998665002103
Cd 12.325945805288605 19.523710104651865 16.170069682712953
Cd 10.990975500418442 13.020082124299353 16.756513715009728
Cd 15.876558659062058 13.773032150197302 16.34019115678956
Cd 14.751211705886872 10.212671164286732 15.024935570631028
Cd 19.765328224713258 12.007702220783331 14.455994293923798
Cd 10.21275381852781 16.243270222762508 16.838075012536393
Cd 18.858457814924844 13.107810602196642 17.161023452135666
Cd 18.60015772046697 16.270117022196946 18.094660334794494
Cd 16.05177417769724 16.82461695895445 16.549873919760504
Cd 13.576018842455998 11.901938447683335 17.52292853372899
Cd 16.431148435951517 11.387624277415778 18.27933192036187
Cd 14.500594538785899 15.180470341554045 18.57381263303099
Cd 18.00774311994791 19.7315030514924 17.01007497254452
Cd 14.873122712572874 19.20147916045296 17.928556519149534
Cd 17.61371028984969 16.306620996783167 21.341686985949107
Cd 17.239446799338438 13.997919045029931 19.53649954446637
Cd 12.3095749879973 17.665841620245477 18.477947466436422
Cd 14.69289884095498 17.48181296846855 20.46393283347249
Cd 17.398881281978234 18.65861933880913 19.643326606245417
Cd 11.560601223312743 14.790549948590938 19.091893436056893
Cd 14.50576394321636 12.567444401278129 20.278736895691324
Cd 12.29456068131238 14.218163993310556 21.80591181010082
Cd 15.141504304076891 14.953536643658145 22.105665280954312
