50
Energy = -22.47010732 eV
Cd 8.479965365685967 12.7400661460921 7.207041371711572
Cd 9.558304524804715 9.990721923825593 8.047058192603087
Cd 11.53096177611967 12.295507396651136 8.4237452722687
Cd 12.51725343372808 9.44150649630895 8.478027428614174
Cd 14.339159962177828 11.727000233171015 7.489091277787953
Cd 13.01210399958271 14.833074168164835 7.950260346244344
Cd 6.4999509054565445 10.771389803798543 8.13738021771328
Cd 15.872267203391798 14.224825244576373 8.030547584642802
Cd 17.397656215267816 11.71976736554403 8.510570746639578
Cd 10.02207664693341 14.907033029320345 8.423099228927713
Cd 15.361436629995652 9.570029795120373 9.453281224058246
Cd 10.400417229269657 8.03608003934361 10.266493614291617
Cd 7.581731294200906 8.85171594499082 10.169079299108118
Cd 13.345810016271338 7.656283404189098 10.764879691317091
Cd 9.337295124902866 11.802190191875514 10.54459628554726
Cd 6.92782031727891 13.462406198074879 9.66479910829304
Cd 11.778536887700197 13.921569488942144 11.136560648228405
Cd 11.6507755261831 16.842670688853648 9.99018484184981
Cd 11.910460338141538 10.657237628882648 11.37766921722468
Cd 14.580259125735887 15.798841550505065 10.306744016870267
Cd 17.04277685515582 14.141926408065993 10.75437276860629
Cd 5.955194480611627 11.023182837854538 11.157508428209118
Cd 14.314514743896964 12.410237625853915 10.5676157272002
Cd 17.27292043233059 11.169312154109981 11.379748518692903
Cd 8.872484210826817 14.987713222469186 11.2336704881101
Cd 10.31451981705112 17.128626993104227 12.651944523524106
Cd 7.082228091308369 12.89051545549723 13.05105655057966
Cd 13.733596189912832 13.147075749190307 13.329689252593543
Cd 14.625436937470262 9.857509399960994 12.438453631560229
Cd 13.21837999832162 16.928998721777305 12.664153407838409
Cd 8.809180686658552 9.802520166291236 12.770061852138511
Cd 15.891242824585246 15.952408064858757 13.069376039659614
Cd 8.59479981821072 15.168271384605776 14.2153610741066
Cd 11.104211059643083 7.8364496017781775 13.106817009612245
Cd 16.763751435139955 13.2290639160387 13.640990505528787
Cd 10.344738765650812 12.532125263866023 13.355734324726019
Cd 9.835585162101678 8.914085791667366 15.560196590933908
Cd 14.815089689188516 15.156726565760195 15.723393604301085
Cd 8.274467249014076 11.486961984643257 15.327158311473571
Cd 11.758037549063653 15.138109689261272 14.585273112253509
Cd 12.440176462715648 10.6806551688518 14.429947607114308
Cd 17.027015297291985 10.380246780654552 14.22825423165107
Cd 13.959210134685376 7.008350290255049 13.561175350377397
Cd 9.75545430045665 14.033312596439627 16.60645984531262
Cd 15.18482115559911 11.930590687777444 15.954055060568399
Cd 12.393710702286878 7.579142945480678 16.08850738086787
Cd 10.527866917761738 11.25126877976564 17.24078748516812
Cd 12.74451063759633 13.277025232569208 16.846165506725548
Cd 15.140595670081098 8.694519943920703 15.686416839287551
Cd 13.214826859066372 10.128736495910863 17.52013201384838
