51
Energy = -22.60741561 eV
Cd 13.393079182045156 12.456945647343378 6.075035039835882
Cd 11.059333109000377 10.455979539434532 6.445129061834702
Cd 10.689392295741719 13.141777565419291 7.492456641974042
Cd 8.702203873714215 8.658543422676475 7.10620741973431
Cd 7.975031919796432 11.500632443997697 7.482946739892627
Cd 13.953379406802165 9.765642661322081 7.036075628661321
Cd 13.32563319013628 14.78924280117467 7.987190312676736
Cd 11.605068034438688 7.722125802435547 7.548727191198051
Cd 10.427531192264931 15.797843913092622 8.792492238255665
Cd 15.606824820037604 12.681460961552212 8.12855631173641
Cd 12.865004853613138 12.035383434971939 9.392206719494789
Cd 7.093757035648219 9.516063402941839 9.583964898748432
Cd 10.10984164878345 10.55519797387655 9.719882534060702
Cd 14.496420197705367 6.904256587806159 7.757637255342874
Cd 10.30573508452308 13.34133234207558 10.753419238254155
Cd 7.334383193260182 12.434918414524292 10.467534169655767
Cd 9.398927433358907 7.393463267980099 9.757263215881006
Cd 12.829241303826835 16.49371356281163 10.39078290939066
Cd 7.9705577332937 14.384218667498702 7.827676379317115
Cd 12.74356241577258 9.26493799195595 10.127302070817512
Cd 15.868375907148488 9.80860456554091 9.265761205819143
Cd 15.782974240704082 15.24333536439566 9.903202664414842
Cd 15.175095975067247 16.489228126808285 12.558115248975986
Cd 12.145166804312682 6.274828755914523 10.193779213295299
Cd 15.891746935453664 12.384756483037267 11.129637476948666
Cd 13.329695070690539 13.812613748539336 11.658743650477156
Cd 12.145950134936147 11.189145247483204 12.431312530537578
Cd 10.835932920578852 8.428734093193263 12.421624849658823
Cd 7.543725606502622 15.523342487993121 10.40263779404272
Cd 9.193484590700063 11.045794367042186 12.62775450237493
Cd 7.8336447828267355 8.047293640951752 12.186400406489494
Cd 11.514160541491561 5.53779783529969 14.27271841683005
Cd 15.021877341537751 9.654326491640724 12.25190343282571
Cd 9.938607169530782 16.842694285480068 11.64787738800865
Cd 5.849634251293919 10.40600978176596 12.149773923615243
Cd 13.917192150707013 14.646827950479983 14.788401873297037
Cd 13.550789261186223 7.03490311566711 12.785625478746745
Cd 11.071491162751377 13.901644331672298 13.647677841870614
Cd 14.90349385067117 12.017939343486706 13.982487340204237
Cd 15.399908386091091 7.021903628200779 10.506776779344579
Cd 6.464435974164106 12.373612606483684 14.161587910924759
Cd 10.410186666532269 9.68700958476152 15.349928581665885
Cd 11.54301446404923 7.199850298606895 16.75750609118824
Cd 8.926514911896103 6.908905594795793 14.806911424670373
Cd 7.347928157962437 9.457697811277022 14.815865171542546
Cd 8.184342678492914 14.522199073358367 13.098964117714992
Cd 12.215880794877798 16.672626420824727 13.469410891264399
Cd 13.303128184504779 9.273413267915315 14.744741091680513
Cd 9.27670080270513 12.531878054291075 15.426044242775745
Cd 12.38648096074744 12.032112867445495 15.661477703503712
Cd 7.558238801787339 11.149997776418978 17.43757218419561
