5
Energy = -0.51763159 eV
Cd 12.058178158804237 10.456026551886694 10.476783092583238
Cd 9.473637836281297 11.973360877783914 11.994661067857395
Cd 9.99872964048795 14.250419275988373 14.651523467632101
Cd 12.46918359584356 12.967289450652089 12.633219434008259
Cd 14.351971426488417 8.796170036828002 8.689606770956885
