53
Energy = -23.86549506 eV
Cd 11.412605756366956 12.671584719247788 7.26242761871911
Cd 13.826753281558085 10.992465305220122 7.539029130664385
Cd 11.344051938496468 15.651799946556721 7.712730217778038
Cd 14.061095977720196 14.21487745132335 7.68507672216533
Cd 11.03449706661788 9.686417164815497 8.007365288371478
Cd 8.638413219937522 11.673402845847834 7.836638359366234
Cd 13.053355180858498 17.772411625746102 8.889534870446852
Cd 13.337697575898796 8.115973753353051 9.295194420973488
Cd 15.947417380906904 9.318656773589257 8.511365033264106
Cd 8.281885027673914 8.963283029503986 9.191666079872322
Cd 10.542532935881065 16.90025447542999 10.453120027934245
Cd 10.247612164556367 13.699022070755658 9.856609019514138
Cd 6.060175982818374 10.936227228669326 9.543491785402495
Cd 8.348033718052923 15.631442229994288 7.516407022363202
Cd 7.128432520157696 13.707326974335123 9.437043991611377
Cd 15.374243182605762 12.387209905225456 9.697194156228313
Cd 12.301555274346411 11.435464746199376 10.26252909270199
Cd 15.58811699602622 16.330932691580898 9.50275471672531
Cd 16.803040281590892 7.2318467925586045 10.410533367100863
Cd 10.83179939526466 8.310315357841302 10.8344203306441
Cd 13.07267966245698 14.38632183597331 10.630788535608193
Cd 9.44710760150348 11.12543706700607 11.126626947145947
Cd 14.240595220112603 6.610347714893014 11.878358505138669
Cd 14.383590952724681 9.798919244089207 11.619423118357053
Cd 13.074623242447286 17.025840853172078 12.045889449023226
Cd 17.456183521954532 10.320700476049739 10.89331107792067
Cd 8.450665556848307 15.158299305346276 11.762790781425961
Cd 16.58822924385656 8.038283098708362 13.24848131522898
Cd 14.082266555351046 12.500433234496517 12.792564165936232
Cd 15.716739553044475 15.632668620014153 12.476308209193137
Cd 11.076753488883353 13.420096431159939 12.730309345058345
Cd 6.805935891491041 12.581428304973397 12.199110271570701
Cd 11.717661471546739 10.25801829424145 13.087071336021467
Cd 17.277214652254976 10.974966151379927 13.761346069636598
Cd 6.777832726649073 9.383178266322036 11.978569832536673
Cd 12.040295701648361 7.22851974034767 13.61461646928504
Cd 10.572672364071966 16.402792295945574 13.606830547650453
Cd 9.105389357399767 8.199659902528557 13.333746109242195
Cd 13.382640112575302 15.035422473869575 14.33514877948417
Cd 17.15467785143791 13.259327736654585 11.869226987419404
Cd 8.874003500952078 11.48508680333757 14.071126731773301
Cd 14.683266938956836 9.947536054029245 14.733110853851999
Cd 8.56706490339052 14.38866410651356 14.645436291562914
Cd 12.017752451534966 12.20301778574168 15.266847817240858
Cd 15.737485001824359 13.027700755483265 15.266875613569027
Cd 12.384339915149916 8.93381921680578 16.125611721257403
Cd 11.080766366960948 15.09689511667225 16.31181180737949
Cd 9.461710881511397 9.415742637487726 16.029833276670686
Cd 14.06600782100513 14.383322233074383 17.250444824680738
Cd 9.380882871671416 12.621510575938034 16.920466023680845
Cd 13.949251553449507 11.34410228410904 17.466742596949988
Cd 11.025698068564735 10.530738195616381 18.328019420084345
Cd 11.822047172103618 13.287635132895005 18.78537094923595
