51
Energy = -22.80221076 eV
Cd 8.482640664062725 12.995475608696964 13.920416320520635
Cd 7.9533871836447165 9.34165372392159 10.451363159946947
Cd 13.269277642345179 16.473639009527 14.370595457404452
Cd 13.66669950377786 8.636129588864106 16.21276264015182
Cd 12.720082038352304 11.456808568106615 16.7870752775138
Cd 12.266336535742784 6.696154689553164 7.82986743975534
Cd 14.861799068468905 16.61146282038559 9.568812273894805
Cd 10.080875258863896 14.810669000166675 7.799790009178196
Cd 8.95663814158899 11.061425395251783 18.39242609533092
Cd 12.59817052859951 9.830762837153461 9.911249456327432
Cd 13.43885414889046 14.72516033827104 11.607923602141996
Cd 13.297868376229951 14.62977741852173 7.842513951865085
Cd 16.022926140978296 10.508480218070058 9.40074531793276
Cd 10.218407595518986 14.042654439750995 11.63011827196099
Cd 14.117344225036012 11.695644985451803 7.455477351343186
Cd 15.239513945257041 7.893079322090779 10.723392642398395
Cd 9.792841057428463 10.126068026196139 8.26902020567201
Cd 10.24827726048274 7.509848762756328 9.71717236828501
Cd 10.00450430091472 13.143902844766819 16.685480260058426
Cd 11.802441769464636 16.61954327411666 9.507433079301627
Cd 10.370739541413803 15.360318340162069 14.77828150329767
Cd 8.590988170111382 12.644369044484243 9.217480675107264
Cd 15.13105314611012 8.215056201003561 13.720549450579634
Cd 15.26951688255669 17.44744123392683 12.462818165484869
Cd 10.382410705517033 10.799494355063317 14.814370426983979
Cd 12.253275334320866 9.499571864396357 6.548131801691756
Cd 17.014923549661333 13.014795698951488 12.736833043218908
Cd 11.083398143190504 9.016075460292255 17.741001686589904
Cd 8.737978044195117 16.439418371655442 9.91239677701142
Cd 11.970896283737545 12.710378530954927 9.725594963683806
Cd 12.802776914380132 14.358579910480698 16.44400831520902
Cd 15.130979699787659 11.177226701022823 14.838529247139778
Cd 9.73919017958043 7.937813099098527 12.60633079033183
Cd 17.198925506943095 15.522487524870092 11.255850073877522
Cd 8.374905791568654 8.978240286698743 16.280469890647815
Cd 6.738718528181921 14.64920316371046 11.221577775263603
Cd 11.13084320558232 12.307137770596594 6.672910970269721
Cd 12.25400077774169 12.877555175572095 13.6669526679011
Cd 6.761825491281223 11.809341410912252 11.483580597809494
Cd 10.307531146058949 11.029091329060616 11.655661456786214
Cd 11.089806867427955 7.510346445874808 15.12250746621072
Cd 8.186308897152287 16.37359588177853 13.054746631793822
Cd 12.558024129894935 7.303394654219051 11.683190707481348
Cd 15.736764737851518 13.5229609433693 9.3990118447463
Cd 14.7383169062043 8.278394178630064 7.825488173076796
Cd 7.754495964515684 9.98778235937365 13.533705208112341
Cd 14.284770093524862 11.80349307840159 11.597743311051383
Cd 15.083962602247539 14.14959292433402 14.528038607168968
Cd 12.655565383940525 9.881767017484881 13.211004135070706
Cd 11.195437863666504 16.911074575320917 12.350839853263933
Cd 16.89902380043495 10.141901271109164 12.292998276584584
