51
Energy = -23.16068144 eV
Cd 8.935518509625238 16.959820802958983 10.740249465424382
Cd 8.615665679194409 14.619662428434998 15.32389305463945
Cd 11.409393223092929 8.023728119394645 15.923210194701872
Cd 10.370340669955612 8.424021514612638 11.216243723200927
Cd 11.622006158807201 17.377614053629216 12.259116203113821
Cd 15.862787687198278 14.724906809335767 12.04259931773465
Cd 16.85911140390505 12.71752557191104 13.962284131993535
Cd 10.756632789221623 11.532935933741667 10.9047961005155
Cd 15.658490164359744 14.099885524339332 8.926743043139405
Cd 13.568624433953131 12.484503184710471 12.649529973721188
Cd 13.31692638412648 12.584823169212747 18.283591289787974
Cd 11.368443146067829 14.178247110830036 7.183554121992591
Cd 8.884039056399374 9.67852035053403 15.552552423708093
Cd 14.266623138653934 13.465150845584281 6.332108770470082
Cd 15.6471622375669 10.138543191666004 13.227203740576357
Cd 12.663994878650824 6.920694909222467 10.012987318778697
Cd 16.12853839170864 11.958190103937316 10.88114503332325
Cd 11.770578665889401 13.057970559534853 14.91508403461887
Cd 10.971798516697673 14.30575767365596 12.272276881992031
Cd 9.18702282779948 14.154556309751596 9.546311039674594
Cd 12.730716895594874 11.460359237918905 8.0086274037701
Cd 8.314442236643208 9.856615347180414 9.463023106184085
Cd 14.110178326822604 8.287795807745079 14.92123382288159
Cd 13.509440712586862 10.099020797528166 10.686693470798216
Cd 10.492507008060501 13.740415221246781 17.67870533960712
Cd 14.830525344769665 7.511578963545091 12.085137168328766
Cd 15.697161027976314 6.69692515262201 9.428058839500004
Cd 12.188796745161996 6.626953364168404 13.147155286365965
Cd 12.80154672272562 13.600628422313537 10.020495827397436
Cd 13.947373871504837 8.55725244968279 7.725503808062144
Cd 8.135660953601661 12.15763783837987 16.78733283659164
Cd 8.991974065435794 17.007206739056738 13.678030970594662
Cd 9.64094791827783 11.833130630048846 7.7295533623466275
Cd 13.9448476970893 16.47796405590863 10.655605997482674
Cd 13.558009791146178 15.51621643730778 13.732146651964504
Cd 15.541603861078618 10.852128328632991 6.472164388116245
Cd 11.312818012103866 16.48566284657418 9.190772522744753
Cd 9.174761469802839 12.075707006184373 13.532604033905853
Cd 11.787384000826068 10.221371770961794 13.48052708422037
Cd 16.353726860350882 9.646143236402018 9.142227324964125
Cd 11.216803785392528 16.290030296091665 15.429418427384023
Cd 11.016297905226192 9.060913775512919 8.35181627982622
Cd 7.2237285614924245 12.12099777799197 10.97727388116518
Cd 11.277252866976008 10.796291026015021 16.974617121370066
Cd 7.817767445271803 9.598191217043814 12.493175408394597
Cd 7.7902698536014165 14.642009615530334 12.336555337928386
Cd 12.999837864460686 15.467988345663656 17.55407508311517
Cd 15.096242848487147 14.047737625746116 15.89603888640451
Cd 13.740974751602282 16.076342940950735 7.555968256081865
Cd 9.4220428633866 7.374610048025841 13.791590304713637
Cd 14.237926231922803 11.174381973273777 15.685658366932051
