50
Energy = -21.94612687 eV
Cd 13.59202064825109 8.595396985438635 7.059137937764728
Cd 8.837599692679738 11.022581655865517 6.33449209100357
Cd 6.061188375723384 12.263508290513967 7.311977766157298
Cd 10.7943683220308 8.699562555730829 6.611617502711815
Cd 11.344219587552788 12.44296065262923 7.628094117759418
Cd 5.523428859959667 9.436309241681561 7.390970117933701
Cd 14.592060934677534 9.789383525922872 9.602437761158383
Cd 11.005764065099825 15.511839750172292 7.919580116827646
Cd 8.01081471359475 8.040951609363558 6.989847783699677
Cd 14.228916906446356 11.529144959620808 7.101054227515588
Cd 11.369152494395026 10.103705503507559 9.406210692955234
Cd 15.785808964777592 12.544351732616535 9.728333511671664
Cd 6.480135780793559 13.917252911621045 9.868470428545528
Cd 8.25386151892537 10.652081597810747 9.310072584222818
Cd 5.17916007249328 10.881439307329204 9.982696052921494
Cd 13.780761443679856 14.316801256465228 7.91025503785114
Cd 12.88978673009521 6.993164721301316 9.486352730530605
Cd 8.571451293218741 13.799507059758527 7.682877687804587
Cd 9.7687079572988 12.904379025589568 10.581413658364333
Cd 14.873069992463817 7.64274346954247 11.70394369731162
Cd 9.822490258741974 7.572771789848433 9.480617007341825
Cd 12.733296851225038 12.538525918237163 10.583818450786957
Cd 9.060066307932548 15.923155673817421 10.140220557145255
Cd 14.951361853316053 15.24836471346683 10.559695647869297
Cd 6.74248279869459 7.860030160174727 9.776402597468131
Cd 13.209053508326027 7.03065810771852 14.255773412790665
Cd 12.123281923094892 15.796940661157889 10.676295637114752
Cd 7.588407410361555 14.822549300769728 12.48865443523775
Cd 5.96821313221473 9.049409235566717 12.386282506361614
Cd 12.350249424346245 9.581453509045696 12.167396202692581
Cd 16.55331961179106 10.345367311984045 11.78616267309185
Cd 9.462363967876659 10.141238562606855 11.933088660735546
Cd 11.15673889217903 12.344921015032654 13.277592418952027
Cd 6.832466188453153 11.923285301660721 12.287974452792868
Cd 16.27606337616523 13.737815807218622 12.699812556080504
Cd 8.418223844614939 7.262626109804905 12.310484086923932
Cd 10.397897080325992 15.220048725881586 13.034879026396357
Cd 13.40170070807683 14.7004942166767 13.468337972967173
Cd 11.321063543933434 6.514091283614726 11.939640893011862
Cd 14.137277614651799 11.609629068396355 13.195468733582189
Cd 15.519194119841904 8.978310248906958 14.351754610586863
Cd 7.737298273532288 9.928440417961815 14.622366474154871
Cd 8.40528835609135 12.997335330004804 14.64164912407239
Cd 12.833131062588368 9.597484503887415 15.736558047300365
Cd 10.242577772128104 11.054715705831226 15.864133752179088
Cd 17.46327887782058 11.574568402883948 14.344739271434072
Cd 12.969110861929073 12.66506135512651 16.002134036831627
Cd 15.6893912779716 13.812461301169057 15.654535518355207
Cd 10.405512938783827 8.35528803421613 14.373636193964481
Cd 15.542825250517058 10.981797856531983 16.605964978748307
