52
Energy = -21.57648775 eV
Cd 13.312673862875544 11.825326799679333 6.1384729596293
Cd 11.23822945155288 13.93271407693643 6.284901057589
Cd 10.608350323703364 10.755644721885918 6.538224527812739
Cd 11.80748532333887 8.336779828185767 7.807761999205434
Cd 15.382315744060547 13.00000515918156 7.764144091726216
Cd 8.553611909839397 12.364664728600296 7.939596766333891
Cd 14.462795510922309 9.759441752442866 8.037913677895073
Cd 9.11715278382588 9.293390306228858 8.777944158811646
Cd 17.96021128497028 11.749005518362658 8.922058620154145
Cd 13.063953719347326 15.252629459109741 8.621788132711794
Cd 9.825350934898871 15.209149564161608 8.46145401733203
Cd 6.513414901377336 10.744790370913314 9.385077034429623
Cd 11.529270148734929 12.454187487233577 9.131940313818845
Cd 11.842019971515064 9.895008909705616 10.656516265470025
Cd 15.573764134642877 14.471850848273736 10.245844859674909
Cd 7.254655173359895 14.080371487698422 9.97953328076086
Cd 13.681512739420562 7.318386698608678 9.903314267708176
Cd 10.511466669177121 7.1124833766138655 10.567395480188829
Cd 14.20098987331032 11.68999997027783 10.406739380438548
Cd 9.358734106754415 11.552267863596837 11.172192898074115
Cd 16.403536095454164 9.75128423687585 10.717199192770364
Cd 14.14653446576162 18.14545123745298 9.28574857806374
Cd 11.713333456739655 17.133400212489704 10.960502331253332
Cd 7.653015487460291 8.870796073014153 11.443213986914023
Cd 8.626484202623415 17.234523588295907 10.423288302944751
Cd 14.129379134768403 15.954034027992043 12.262333937349627
Cd 16.67453075633877 12.522620996467415 12.218669639727745
Cd 6.336395495329872 11.847177208312173 12.094745374842391
Cd 7.300336152233564 14.891510879911463 12.862464670116303
Cd 13.475436169855309 10.277409004118454 13.219361482768587
Cd 10.432072196977202 14.343232780229735 11.270141538567438
Cd 10.522997606255494 9.82791409238074 13.356375196351303
Cd 14.95816030215627 13.345775821419986 14.617454202797923
Cd 10.221791060487911 12.787428497221637 13.802498213796431
Cd 12.824750602656486 13.149047635039766 12.52966322009374
Cd 15.035228498927408 7.748632744367675 12.404059703987492
Cd 12.26275549601017 7.121414628336506 13.475638231264227
Cd 9.279738062866755 7.051134952496374 13.259936754662787
Cd 16.345776846669064 10.149395818799464 14.005681827682281
Cd 7.743407651040887 9.242771151425044 14.742581272399446
Cd 18.0248717080019 11.41938925267102 16.253368659082565
Cd 12.482653521240923 11.306848423135325 15.7917899852573
Cd 7.317181372150617 12.201967725906021 14.76740125008197
Cd 12.477665696788332 15.498878503408562 14.616297367253956
Cd 8.600362093722255 14.846128828091254 15.66301637684084
Cd 9.877024155593665 16.531252360963872 13.399361940844562
Cd 14.767687010189386 7.542947298952088 15.403944934211477
Cd 10.933174527667349 8.518701484559134 16.133765869080023
Cd 15.188409042559005 11.690564591232013 17.222764812456056
Cd 9.459934171352993 11.131691604786218 16.571033796248283
Cd 11.230767098650235 13.80261393584866 16.669606656477512
Cd 13.50523167994851 9.064541862205195 17.561857290150424
