55
Energy = -23.39949313 eV
Cd 15.99144288012683 15.455422284676908 9.569848969233174
Cd 19.845126074109558 17.564240084755387 9.652869658798657
Cd 17.14270719459163 17.64079936543248 11.335314992826168
Cd 21.374280437219156 15.326430351117283 10.925240664849584
Cd 13.790598843494836 17.03629096674616 10.618401096253658
Cd 13.843473405795057 14.088602597175464 11.250062663701549
Cd 14.94078719477406 18.510732131935622 13.109806455923282
Cd 18.750375403375443 14.704128013352033 9.915611522031908
Cd 19.317866983402908 19.792454000946364 11.519743613270844
Cd 19.884140768044286 12.692033281204832 11.952865739410003
Cd 18.93138514132418 16.003802276940128 13.112234224886294
Cd 15.607762851582445 18.20323136115936 16.02001160848645
Cd 22.211689945287496 17.23723364210686 12.924442224326995
Cd 16.89743722800254 13.233803118190234 11.630934209167147
Cd 14.790274217158336 12.037270231407229 13.287711042525547
Cd 15.802170333335937 15.643682000215064 13.5797449119559
Cd 18.195881352303026 18.675826678600366 14.276285336894887
Cd 12.18358378452137 17.290736570035317 13.026602590845428
Cd 17.868515224273683 13.41894763481114 14.581775268715
Cd 21.199391726382732 19.812600996836668 13.700433270888176
Cd 12.94380864559793 11.981924876534903 15.769768887192283
Cd 12.893997782023591 14.479542974941113 14.04373651905534
Cd 21.593436815042587 14.25861708072837 13.797857150302223
Cd 12.574552044019098 14.041400306946466 18.136150795886515
Cd 10.023461755319385 16.094843920323793 14.644625079199187
Cd 20.87365689416004 16.68217108814624 15.560013623604494
Cd 12.851189108593498 16.62584578611366 16.224755622175536
Cd 15.157936229773583 14.306956902123924 16.255114956091717
Cd 12.698045303691941 19.573727806687746 14.861483202875855
Cd 16.181402872413766 11.020830325365191 15.646638068148667
Cd 10.400439237191629 13.38163175762102 15.849776923678126
Cd 13.827426152870023 9.557758709346219 17.26559156907668
Cd 20.546984402134242 13.280702424109098 16.23443257282831
Cd 20.42033378968695 17.963726330971962 18.214425541526044
Cd 18.058710894614116 19.646919611979992 17.15089089736374
Cd 20.84646858945602 20.335717128189103 16.476689606825367
Cd 15.172751315755393 11.963536775182932 18.44678435224292
Cd 10.135656770250797 15.856638030314437 17.616162967323724
Cd 17.786551389722796 16.101519515260378 16.095155003071156
Cd 18.21441481536911 12.101445843087303 17.597213657526613
Cd 14.650447187208911 16.525719035133903 18.604952555512572
Cd 13.133127571302584 19.35919535859294 17.68317981202257
Cd 19.8150407390445 15.095283095255434 18.381142898020656
Cd 15.777614408395717 19.731975793187566 18.922928098810672
Cd 14.159480433795698 13.484682925575063 20.71848561647338
Cd 10.850114592575476 18.06173062372311 19.295218327497142
Cd 17.679306316897815 17.27688223789516 19.308497534857672
Cd 16.828122825275877 14.434383475306742 18.924657801262054
Cd 13.384222922078795 18.82789664962476 20.642867879814762
Cd 15.772084071736668 15.713394963658091 21.788757656705524
Cd 12.332538920855656 15.778627904016743 20.775648204749544
Cd 16.19039874675742 18.636320287427267 21.731077956890985
Cd 10.909696491471308 18.610400231393747 22.579719240064115
Cd 13.858446329025734 17.68616956908524 23.619766538914963
Cd 11.485908889382438 15.750279311103515 23.742559060016248
