51
Energy = -22.46002236 eV
Cd 13.332830271578358 10.96744998095681 9.080585108130029
Cd 11.843962571370396 11.563823370960145 17.123174805578348
Cd 9.530850414250663 6.765905039055318 13.529457181187325
Cd 12.391082494636048 7.642180776017069 12.974732962745122
Cd 7.58887472937365 13.137343779452795 14.17409333389443
Cd 14.761258143732947 11.981699145009843 16.452020266128752
Cd 17.43564898358626 10.977434167174849 11.206792153122558
Cd 9.099020136168892 11.19811751068231 15.917885987165604
Cd 11.786034559728666 11.509074198178137 13.894231000677765
Cd 9.486049329856371 9.783343696608421 13.182049049053084
Cd 6.656179279015635 11.561857081108862 11.256916768237765
Cd 10.81562202816515 13.976664548673055 6.770559894608582
Cd 16.61493481282111 14.304801878856319 14.73506127798391
Cd 8.335132139908497 8.27765052794276 16.013410597928484
Cd 12.014267039620584 16.142117703621523 8.497531496000509
Cd 16.03417027817967 12.515524450308371 8.962027729374034
Cd 14.004838447732908 9.520299973125008 14.864520072004986
Cd 13.666669127686184 13.684647584096282 14.147497908596142
Cd 12.319624013030529 11.188351828205434 6.245341734379673
Cd 11.260258887851224 8.789955531854064 15.667216537369129
Cd 12.929582358911741 14.420333252694151 17.053560173618497
Cd 15.835664819492441 9.372021195274597 9.289134681280224
Cd 13.89806689823039 8.35955276533471 6.993428398252063
Cd 9.66374616022396 15.839614189728438 10.261618019017261
Cd 16.202736018849105 11.359857713934007 13.873226037585624
Cd 13.273545049307867 7.650260967228967 9.944536561580716
Cd 12.49199319047751 17.314788296896143 11.20224735930117
Cd 13.800519928378131 13.69453925302017 7.26363630826662
Cd 16.539644125925502 13.836220673981757 11.723034706760254
Cd 6.535780481497539 7.205830186614447 13.997825082868124
Cd 11.123660233367698 8.952505794778775 8.143222296057504
Cd 7.259046828311613 14.504855439520531 11.446671795398293
Cd 11.33597194648043 12.964291382609161 9.590259882029827
Cd 15.057401046541674 8.916263658787486 12.138953831137506
Cd 10.22430027903987 7.289456905094333 10.591550270762786
Cd 13.923212731197601 12.00471176994099 11.713977316527748
Cd 12.175130129887034 16.648980014302264 14.364901287550515
Cd 14.328197495905544 14.866575922501884 10.003215435756179
Cd 9.607738028221341 12.42553702053045 11.929318117236793
Cd 14.865258197559816 16.18856423964345 12.8309918507673
Cd 8.828703591209713 10.14690180682342 9.643480957617617
Cd 8.39177103712 13.401635044798336 8.891847606922044
Cd 7.425051775636014 8.3574011420435 11.445140259273655
Cd 11.831057193229704 14.376304132858566 12.043076531407559
Cd 14.901202556295223 16.36199520303543 16.06052565649944
Cd 15.383078378144457 10.882801497532345 6.358689922825936
Cd 11.622560227769863 10.114054098537332 11.220707335304807
Cd 9.401121701117862 15.84746380736941 13.269720100747186
Cd 6.571122483257028 10.23532289965596 13.962162244005208
Cd 9.422901580701469 11.292479189832866 6.967946191898281
Cd 10.446620020259031 13.954331944049322 15.35998209841795
