50
Energy = -21.89713398 eV
Cd 11.001089316755584 11.97610401677307 7.536780398148449
Cd 10.923993853147163 9.077523881213732 7.067562535950863
Cd 13.707241009235807 10.44282421513237 6.581942621333837
Cd 8.565448305245885 13.749366394808389 7.348657058690801
Cd 8.426558181563937 8.231829905379945 8.563447574886974
Cd 13.499632288067165 7.487365734850266 7.670816278846932
Cd 16.102630206021754 8.915049928952419 7.8902247428302505
Cd 13.726003644489648 13.337358732445145 7.285579230913746
Cd 7.945154780061388 10.906309179168211 7.740870316963688
Cd 11.366909289128788 15.056058055862414 7.524480164166332
Cd 12.41396337050876 12.860429625723393 10.238211344324506
Cd 6.418362090664232 12.821733957035894 9.580504813229929
Cd 15.829117735786598 11.699275324102045 8.738531424176152
Cd 10.42564823533884 10.221328302545393 10.217493936912295
Cd 7.2578112474852805 15.878319750059447 9.037878179058149
Cd 13.312197436055555 10.029737328072143 9.787642860139991
Cd 11.020892900864094 6.864938854644853 9.2743226427475
Cd 15.036312883664017 7.3307324758569425 10.288783610066893
Cd 8.378185090105989 7.365828463109426 11.308794517464818
Cd 15.928179928812671 14.745045688576083 8.971337163075667
Cd 9.43970962614522 13.06886443603097 10.412763310779003
Cd 13.288688133144577 15.801741514551455 9.752384728240658
Cd 8.937600269468685 16.64963879615919 6.497564883823181
Cd 15.198917039321444 13.149076789739802 11.406782893319289
Cd 15.999881529419813 10.172406430519283 11.345793543243948
Cd 7.478555388934746 10.409696188329944 11.000669058637902
Cd 11.162739404938135 12.97659603592706 12.877002556544515
Cd 10.080355246078131 16.03108085785348 10.100887420702128
Cd 6.676199398237537 14.865178753040167 11.71151238408418
Cd 9.116683181791316 15.643391008113285 13.128597919540898
Cd 8.0335133259148 12.624481983279562 13.23618468876682
Cd 13.020415438243491 10.716185162945521 12.712608627146755
Cd 10.118759037189127 10.157487045331573 13.206616587787048
Cd 11.942618719233066 16.19314857341798 12.295297712274898
Cd 13.992721728696845 14.674558057763997 13.655242367999445
Cd 16.873313915121802 9.696028857724748 14.16259860650584
Cd 14.598059605609828 7.930927260895024 13.10621078857032
Cd 11.815129077385302 7.833121248593449 11.895751003068845
Cd 9.596013392491983 6.935891334656358 13.90296218648028
Cd 15.431305487753479 12.214394011392013 14.281843855405066
Cd 7.21516983262692 8.98552366038753 13.647436887689679
Cd 11.098265782680851 10.258185599608156 16.147606435899064
Cd 11.338400000891163 15.346603771136955 15.131030185867129
Cd 7.755271236951231 11.002362081962124 15.740148714830646
Cd 12.302737851989054 7.554608531736103 14.976456556944528
Cd 12.71889270752387 12.631087697609884 15.653884915267973
Cd 8.839793441496441 8.352787019008941 16.371669589163055
Cd 14.063942169574258 9.840301264952185 15.615073322407017
Cd 9.714560761619033 13.123303604746546 16.068787922812813
Cd 10.928905519824225 6.226632651574838 17.367218975570164
