53
Energy = -23.74351598 eV
Cd 9.172097190443166 13.493010469913319 7.976365878145742
Cd 11.840461211848366 13.926061788328932 9.404122272016018
Cd 11.753165943222928 7.859431257894197 14.20863074099952
Cd 11.964377224189551 14.982965885496567 12.212544573497595
Cd 10.654422534575067 8.895798146260754 11.693596466116793
Cd 13.84731736041496 18.256246520671983 11.896777773525656
Cd 12.61341420742203 16.87817439833517 9.563646871396184
Cd 9.559487542974315 8.633138116384911 16.153964037433248
Cd 13.124537876204949 13.26099287182772 18.313543528983477
Cd 14.059223683068078 11.33705689011155 16.03698279377317
Cd 10.65522795375042 16.06732369931531 6.980915680324434
Cd 8.52815225356764 10.522612759787632 12.941258244870909
Cd 14.38976892831408 13.203229349317594 10.732162291517758
Cd 15.17558057622518 16.684791995709656 16.242014383757816
Cd 12.563475908882673 8.413613409451877 17.036555204405488
Cd 12.401153652050219 15.91650584074532 17.241849038854884
Cd 13.9192041729358 12.141455783077909 7.781553342868382
Cd 13.673065077772488 8.761680036934795 11.983199075232113
Cd 16.70989141789955 9.791780371924014 12.78044443043178
Cd 12.353748010712051 13.698517668742845 14.903951407126788
Cd 11.49540931314092 10.87362447350843 14.341223592083265
Cd 10.918779762334289 17.931783121141976 12.33422188739491
Cd 15.832207357882467 13.833290041133337 16.87527174746964
Cd 14.736124197326285 14.582956209790407 13.426259914660827
Cd 9.439708132668898 13.515828577096897 13.871125037194947
Cd 9.589152460039362 16.188448371758053 9.708051511527508
Cd 14.77431371013684 8.366985564710438 14.763266102606767
Cd 17.386727384701356 12.255477703532272 11.015111305704696
Cd 8.621941918143204 13.395649715099424 10.98598777983798
Cd 14.193154146424305 11.592196980661916 13.107262829856651
Cd 11.529345031059515 12.054274297466314 11.675064098910873
Cd 16.212696433464348 11.443982328307799 18.560971198212382
Cd 15.438358119936305 8.584451757613362 17.915409500321346
Cd 17.62381148539937 15.424072501862506 15.01691106022557
Cd 17.077693036057713 12.595901179239869 14.067355988843516
Cd 13.905957725990875 15.312906888492435 7.323351531622919
Cd 11.135901723790722 11.11003845946863 17.44969035921161
Cd 17.021351474518607 10.122205203418025 15.830595883549273
Cd 13.440637314093733 10.411837144174848 19.30021129055607
Cd 12.535487547654824 10.006674031642842 9.522308104107749
Cd 10.048885054244625 13.95203210931176 17.101263815274187
Cd 8.694727279113211 16.00845022447273 12.492668074152327
Cd 16.220565017774888 17.461833406007038 13.404044130051275
Cd 12.874814213609119 17.11055959154211 14.4957177104995
Cd 8.635989196324957 11.495740007442057 15.840793631758423
Cd 10.05315308823947 16.311598466576324 15.157616620932506
Cd 16.392518379956563 13.918370070851077 8.411906876715282
Cd 15.45133879970552 10.307628751125508 10.025893871540037
Cd 17.7844746310196 14.970329989436 12.044606175805518
Cd 15.421071414434815 16.09955783848157 10.453398465344486
Cd 11.890832908513202 13.6426672314692 5.831160018351376
Cd 10.966104940597637 11.225916535375031 7.34839940715555
Cd 9.24726424408513 10.71661413641322 9.767072612099652
