54
Energy = -22.92943302 eV
Cd 13.18448734053387 20.011106448876824 10.58883739099663
Cd 12.15435967505877 15.081483062164361 9.54901179748122
Cd 16.469815075566505 16.468318215488374 8.54946271593633
Cd 13.789243271708806 17.57000885879858 9.042231730481051
Cd 17.390931116193318 13.715387526668296 9.09239368240368
Cd 16.18639897390129 18.382359309794218 10.965455712010497
Cd 17.768155145276747 14.97923601376491 12.422645217460916
Cd 19.476431048741272 18.93485796952512 10.963541353176627
Cd 14.678436462822246 20.06670841660888 13.031289943729021
Cd 14.77356363367923 15.650072926051859 11.518288997589002
Cd 11.53986284368843 17.570395846307594 11.167567464731293
Cd 13.065171672921629 12.866775479218346 11.207651016230733
Cd 19.07551842374159 16.21770991085779 10.052363296955885
Cd 16.011064973908866 12.801746883809853 11.539439933237396
Cd 14.005959215832634 14.067731349624683 14.003037934129885
Cd 17.707722818745175 19.72500313484277 13.212246477911922
Cd 15.065273790521683 10.818064507818422 13.475327890946486
Cd 16.732485962019396 14.480484139230454 15.165091267786403
Cd 16.0924043765058 17.19697891263728 13.943911907429051
Cd 13.044643632059994 17.133987158332193 13.692946728854132
Cd 11.328722225488367 12.039861487903082 13.368372722922505
Cd 19.440835291502015 17.088994803982203 13.540284142237057
Cd 10.630765615812289 14.874946841936787 12.241397833102722
Cd 17.71700383184015 11.82451695549792 14.343690617901375
Cd 12.85597853757472 19.73163906941341 15.335973973559643
Cd 16.064831034124786 20.441786908696134 15.68518302839966
Cd 13.303595645094843 11.341776493074708 15.730719476827119
Cd 16.25857747099074 9.513174637033215 16.042229811824253
Cd 14.354456822991315 10.205658071990435 18.372715901031526
Cd 11.313927044097056 15.190121614382537 15.190062775906876
Cd 15.88191827064608 16.71533977462554 16.913038981157428
Cd 19.38338424284494 15.971996146588644 16.231401224905788
Cd 10.253426073761059 12.449047177688561 15.984742775648492
Cd 13.803652017557875 14.20680904023187 16.94348109706505
Cd 18.799235185062845 19.004588649764848 15.909855014752933
Cd 19.433528103267527 17.821944006131062 18.551780620946307
Cd 12.783566510735373 17.238062749475503 16.946817927218717
Cd 19.09172621662137 13.102372977938572 16.729090412798758
Cd 16.839473731437867 19.466300333945505 18.34683045381392
Cd 19.123747652141578 10.166537667777005 16.90296129697349
Cd 13.944562375711044 20.354573605874705 17.976152626934393
Cd 16.150527512763208 12.462075824823385 17.267040209120882
Cd 17.167686515138147 9.558335969038414 19.054643872420787
Cd 15.917166887859041 12.064061694208416 20.35089601675938
Cd 11.667474310588524 11.256223672137763 18.29224485948363
Cd 13.146731968280317 13.157840247307131 19.935748086588543
Cd 15.485025559973277 15.00292052213305 19.50044559301794
Cd 10.59258223900489 14.523862952416955 18.03855118949518
Cd 18.529325399235226 14.937050170707304 19.097816531063454
Cd 14.355704004859163 17.97064820555916 19.609746179592044
Cd 17.198607113242875 17.38473369069271 20.463159080081645
Cd 18.842796817722824 11.997820964867323 19.61469192492543
Cd 12.232818755261299 16.061264932231712 19.810654990976882
Cd 9.06453676860128 12.304523274766165 19.664663496328636
