50
Energy = -22.57812758 eV
Cd 8.968365577117595 12.19804447183589 6.506376228951534
Cd 11.216416389508746 6.5269752097476506 13.527015928337617
Cd 8.733269737132286 14.145671733058597 9.038397499055193
Cd 15.764056216370088 13.638130237700935 8.78432568780872
Cd 10.948759833425866 16.07799374757424 9.513917739981375
Cd 14.867098821193295 9.52108947389499 15.865863297725808
Cd 10.5966486615844 11.656824972610714 9.48655924248612
Cd 15.579179968389836 8.604644275024892 10.68169521334045
Cd 7.653513990325817 13.774539954634555 14.106365683450285
Cd 12.827823399083684 7.2420109573724165 10.582901312628112
Cd 14.406543828968763 16.73818416985604 13.352190712065523
Cd 14.680119680962823 12.419705200314425 16.379234815529866
Cd 12.042646341764728 13.916750970971812 16.486589464964084
Cd 11.05736324925372 9.50800134126693 12.414323929474879
Cd 7.15775565443031 11.55334475690094 8.745589340850284
Cd 13.38422990187682 12.194608317288212 7.75024999641368
Cd 15.844376146839902 12.053474766463353 11.395566474028907
Cd 8.206773827265188 9.316051783077159 7.131543917106629
Cd 12.404361278780788 7.95114889906378 15.763096127810368
Cd 7.320984611259181 12.674792601757567 11.404583852683185
Cd 13.95664020835661 8.05019967736355 13.200855770298475
Cd 15.67943776051306 15.034837425923488 11.323064420235267
Cd 8.031931261519246 6.870431817543145 8.647537786148053
Cd 7.811337894934368 10.747888869486351 13.716150208084875
Cd 12.647658387870274 13.634670095589552 10.555812385189622
Cd 15.792658405309426 13.620411273213417 13.938059994045675
Cd 13.674106709607322 16.94761906600325 10.371712426474952
Cd 14.631596628406935 15.396995532806118 16.030036397546144
Cd 6.790221678149897 6.269594031093556 11.289389616326728
Cd 13.58308839899587 15.379222752452769 7.889614404984391
Cd 10.355354298378042 12.393780669442876 12.373367149844125
Cd 13.19833810344948 10.707870256726139 10.676674994976358
Cd 15.92122319711664 10.680098507649534 8.64034337033439
Cd 12.298626697568814 17.082603627326115 15.460188911479383
Cd 13.531091532158893 8.957070667209225 8.050117935328228
Cd 9.129750612733748 15.193353648420036 11.80398319626128
Cd 12.150963514963847 10.795705981603989 16.70272419628686
Cd 11.072348522145715 14.111672969938125 7.141827652595453
Cd 9.865828136553791 12.248854423480902 15.446058653560328
Cd 11.340279354524226 10.390514494649484 6.50559031200469
Cd 10.59535104518376 8.551516634192891 8.898311264621821
Cd 9.922917576799806 6.388171572539826 10.923161192446779
Cd 9.90297354732244 15.480330978729802 14.765679780897614
Cd 11.483419507741626 16.88640414648303 12.425856313736489
Cd 9.767907781697074 9.233070833733573 15.4730571406862
Cd 8.383720062012479 7.813755598794712 13.250761607268581
Cd 8.42628809090375 9.805602852907828 10.875500521306588
Cd 12.521248639103895 14.113017293981699 13.435881052201687
Cd 16.3070799555256 9.905650833150107 13.315660841044622
Cd 13.22188426349965 11.252654515729432 13.612192927670677
