52
Energy = -23.44370032 eV
Cd 14.423396053543954 12.0923626763042 6.528027074975899
Cd 12.818086638622217 10.12905468494193 5.2254835421194965
Cd 10.037696160892198 10.370791811606189 6.607105325232906
Cd 10.786893505145859 13.17389728426264 7.855844510169544
Cd 16.763899316911484 12.86413624356584 8.111169844248652
Cd 11.90174225845496 7.9316438921049395 6.982826924383337
Cd 13.532785720464934 14.348664512052105 8.232213257169867
Cd 12.529451616595983 10.799203168116287 8.69453492152737
Cd 15.444904996373047 10.015633364817262 8.844926005154624
Cd 11.273295841327569 15.401625703622134 9.959966186447813
Cd 8.701212491201579 11.199696730055031 9.161965287700504
Cd 10.489192375077549 8.717495418150698 9.746498046361049
Cd 8.545150130197547 14.22148340699684 9.545503683581773
Cd 17.07114846975267 11.557062717762435 10.88350817984392
Cd 16.29030768777679 14.644075529489289 10.474986914510705
Cd 9.885196202439387 16.94629906209048 12.130268428219924
Cd 11.036096644400926 12.301823361619189 10.943108065619004
Cd 13.677349024376435 7.674466498231032 9.30137678372768
Cd 14.144351924134632 12.445028417929258 10.650010686981778
Cd 7.481038566988541 12.427143017241747 11.785415528691498
Cd 14.04338160049319 16.530178995779416 10.185829716759216
Cd 12.691429847001373 17.573136215723633 12.651810015684925
Cd 12.714986307241748 9.7940037302556 11.735348875411509
Cd 8.791098781158063 9.881768235757846 11.933076233757618
Cd 17.535548673392096 10.626016695872122 13.72234903618697
Cd 7.373177001682909 15.40686861062382 11.968279109433185
Cd 10.46746506829983 7.665739014738465 12.671818401801541
Cd 12.866098973657103 14.328982331816574 12.454478815166246
Cd 15.354556970340154 15.997418672370816 12.980827297336019
Cd 15.626216074727107 8.989925089173697 11.758584466419304
Cd 11.187527323339145 11.170178788535122 13.797725967649741
Cd 16.786397603680676 13.4534827589545 13.224545330224105
Cd 13.4019289659684 6.568695035003605 11.964684676070963
Cd 10.016767909690557 13.894096064065106 13.170391215647204
Cd 14.127775104402097 11.796127409385624 13.597031398575995
Cd 9.946782043697697 8.748692522316327 15.44546803299942
Cd 7.883528986079953 16.5637022199044 14.702366954439919
Cd 6.787389082890007 13.806479541029255 14.52080674793568
Cd 12.675900683535378 7.926280982008459 14.619460463351421
Cd 8.201175171210524 11.155658521196079 14.661054526798827
Cd 13.726177636235215 16.826125677757474 15.33304255686365
Cd 12.324228300228969 13.618304360976428 15.334765424004702
Cd 15.459431267656951 14.396125716672463 15.67827901716136
Cd 15.332436278003412 8.984339213410971 14.846771977890976
Cd 9.287359643998519 13.783549173903896 16.16853091633007
Cd 16.173430453563583 11.519806827212824 16.23190501449454
Cd 10.818314346786254 16.324621536241867 15.04809458173943
Cd 10.14618121630491 11.061435908078181 17.20018111662886
Cd 12.999339644696695 10.350897806658137 16.34439749522384
Cd 14.035070530433615 12.742097313780697 17.815111544207294
Cd 13.056667775960184 15.696735851981044 17.92109173159378
Cd 11.242565159529637 13.470471728418824 18.560682196107496
