51
Energy = -22.77289892 eV
Cd 8.351409747468052 13.296850016483216 5.312349045355531
Cd 9.07080470158699 9.938942811146081 7.689890885322211
Cd 11.939961704263286 14.066736404590545 6.884982656391061
Cd 13.700121597870867 11.636257968000322 7.270759055786109
Cd 9.860578203633613 7.068107566134805 7.757844466347018
Cd 6.73345121906451 12.38065852369722 7.537191167218988
Cd 9.16128011052844 15.846706976567509 6.473102238446699
Cd 18.213927605833735 13.099149677194367 10.518711057717224
Cd 7.442538313504232 7.051566970121297 9.46296543739515
Cd 10.86213554733525 11.520269239463879 5.98105075685214
Cd 14.501781747565694 9.138122069086236 8.864566458358816
Cd 15.20298941737773 5.551751015521787 9.932630469084083
Cd 12.605090044238395 6.700767635657652 9.08688447543836
Cd 6.500908734297031 9.911670448765339 9.10514351883164
Cd 12.405177864195172 16.018319686618742 11.387793703122536
Cd 12.031052555431783 9.011114873104042 7.172604938117984
Cd 13.285215391674225 13.85781375366671 9.535916530043599
Cd 15.51840384733979 11.967805663612157 9.721902878060018
Cd 10.036513270128559 5.58623857921948 10.324124637550893
Cd 7.667869103825412 14.784283013484657 9.406387188272841
Cd 5.6200895359019825 12.641801134101613 10.354200746973678
Cd 9.399537517455746 16.11476930568199 11.625573961089575
Cd 10.698953097055172 15.661598373117345 9.010863876668193
Cd 9.668891569822637 12.707942321821928 8.79493066926953
Cd 11.847031572945932 10.997582741464166 9.635450777704525
Cd 9.955048350231095 8.917356687332799 10.523136526859746
Cd 15.229254446738896 6.699545933936434 12.627438312230995
Cd 8.486388281865477 11.3095082933794 11.287544675731759
Cd 6.398440638595634 8.761397411775116 11.758121753128709
Cd 14.833950577308848 14.415761613553935 12.146186628536888
Cd 5.820314367726591 11.39724679659398 13.049323532468067
Cd 12.772207533326892 8.712901908468229 11.407684062771862
Cd 15.74514676885867 9.579854301797194 11.570691881003633
Cd 16.71534909263902 12.328052523542269 13.125407125957496
Cd 7.402729965320537 14.060910988608978 12.36184222291361
Cd 10.782821125179574 13.15244968345069 11.67438047539448
Cd 8.671131027648588 6.998490834952625 12.5655664475581
Cd 13.340773611356125 11.638779838658207 12.16000605494029
Cd 9.434487904944328 15.04459830682942 14.35967698311109
Cd 11.714129844004143 6.046822591770039 12.633530532230953
Cd 10.71911693351204 10.41027055761613 13.134084530795953
Cd 7.812380451756528 9.363046461138044 14.273930997010861
Cd 12.392932077738152 15.129765593926901 14.138085940964014
Cd 13.074814282421707 8.037582692336047 14.344338052286005
Cd 8.170160349106103 12.281646329014299 14.70027706073826
Cd 14.169896928019766 12.880904681287193 14.880077696819386
Cd 15.311485024162204 10.06187672017456 14.460395920294191
Cd 10.262138721428494 7.722481660536604 15.017743647460232
Cd 11.052889388582349 12.78998015444581 15.463414628048545
Cd 12.686198607757767 10.40072107929708 15.957283646700944
Cd 9.725842821534172 10.306962729363795 16.537752210733988
