50
Energy = -21.91421899 eV
Cd 7.713568905117817 8.534167770037905 5.538089871122535
Cd 12.822177687962137 12.013383971184288 6.861597768186106
Cd 12.651672626449894 9.041682876699857 6.767279035876294
Cd 10.023792762650055 13.054559053755234 6.760921390794225
Cd 11.967447148104705 14.805533153565104 8.116557675260752
Cd 12.165349465384965 6.306587490243452 7.6136767199781055
Cd 14.831576590044424 10.309182314113002 8.432045553514907
Cd 7.065084599374214 9.608357482071439 8.288875537156198
Cd 8.857729281514576 15.24437219732761 8.545859653772764
Cd 10.029880255705473 10.160691190231706 7.524858722397541
Cd 13.35234092453899 15.799258315361774 10.501118343145679
Cd 14.546694327946142 6.778380991281268 9.399884165819802
Cd 6.238232948816473 11.098013054836148 10.787720610136937
Cd 14.435496953624247 13.359715896701493 9.031795471889994
Cd 8.522692871206813 12.276567692193879 9.293718773764619
Cd 16.787438076123895 11.85487140004166 10.130061583854783
Cd 9.079055418895848 17.828493797288104 9.910344728967964
Cd 11.570287651977075 6.397047139828786 10.74864249148916
Cd 9.403719108189085 7.3403391305175 8.6625521139848
Cd 6.86351387334737 8.217081160141804 10.966120779807824
Cd 12.413596522049954 9.14647721525428 9.928711745382461
Cd 6.334787717175122 11.180304493311974 13.649353561858495
Cd 15.983019677240335 8.850810638546537 10.99014984824216
Cd 11.619320197203205 11.9618512554619 9.838771889528726
Cd 6.778306749040894 14.036470479916918 11.176250574126456
Cd 15.30390661827453 14.022437797514922 11.930411202376462
Cd 9.643368213389909 9.637716063547169 10.764305826074995
Cd 11.224193155196184 17.33615631722154 11.961456634232686
Cd 13.974380534831914 11.150477387699816 11.611693616731214
Cd 8.904313456179331 6.402367601910687 11.959942954474515
Cd 17.77979347715463 11.025993687571807 12.723423669738379
Cd 10.516142858112989 14.425896091410767 10.914186429211108
Cd 13.664325380495082 7.484696181749636 12.597193441881503
Cd 8.482622352465933 16.020682759436824 12.440497572541616
Cd 13.591593365758033 16.12612631960165 13.504372096659859
Cd 11.618062531823009 10.034480129790706 13.042975495490916
Cd 12.199076652611833 13.041536613045752 12.890942394209691
Cd 10.982027218931231 7.085342392119632 13.991745966829757
Cd 9.363272069134226 11.983874113115599 12.479816761837977
Cd 15.363090301906539 9.500279154431857 13.93975014005361
Cd 15.684787970520599 12.514975730616797 14.364711395021226
Cd 8.487595598910543 8.844055710496917 13.707167138768863
Cd 10.724311089152147 15.319439911670935 14.374909618501206
Cd 7.968341525831669 13.880808087393588 14.457531772361705
Cd 13.348404639021059 8.048192775528076 15.686590964468447
Cd 13.325893004133885 11.129145356600445 15.586854061923988
Cd 10.771132020793223 9.436030343560176 16.06779459027123
Cd 13.515134773662897 14.189541757053371 15.658868122432592
Cd 10.825865638132294 12.824831820807418 16.062394798428087
Cd 8.492629928515889 11.141762450813024 15.62655144003971
