55
Energy = -23.43780238 eV
Cd 14.932398403625923 14.485139822692844 11.154305459567844
Cd 18.587904075430195 12.768607619373455 11.663784869303475
Cd 15.538690629214793 16.754141489368337 12.828088959407832
Cd 19.543259858266744 17.589231284935746 12.059872528555807
Cd 17.788554372958927 15.481065038413025 11.044726076931617
Cd 12.935867249303728 12.613798872436686 12.226810080995365
Cd 11.927014478030411 12.592547818635374 15.070207318680493
Cd 17.589809779506837 15.05001502132535 14.246446513401404
Cd 15.88436624718785 11.929571848740025 12.500417404985871
Cd 16.39463093178351 25.006598125469374 15.098830845377767
Cd 20.43335916761924 14.224381082377862 13.401759405071342
Cd 14.904103728729016 19.558368861087466 13.642146014352344
Cd 21.797216341858753 16.741151826641058 13.849583161897769
Cd 14.139312954722008 10.59366975715163 14.425430082428823
Cd 15.990409242655746 22.111677321614035 14.388171048830374
Cd 14.602837040553347 14.323873351627219 14.71247493455364
Cd 13.561720168281433 17.34058561258461 15.166191160954874
Cd 20.631351891206666 19.431476802539738 14.389767830639588
Cd 17.683185098725957 18.606453052881054 14.252161034473266
Cd 18.64741383117637 21.36667219168009 15.669573016044268
Cd 19.181620193664422 24.142578444082222 14.468670825673877
Cd 18.05464364611958 11.97696422384137 14.569181845042035
Cd 19.3452892077315 16.820756440589037 16.108319595997774
Cd 19.720797963846792 13.509306631459529 16.45254168486921
Cd 22.666512573923075 18.14213210709746 16.371774161562595
Cd 16.374065318946215 16.602420581356398 16.487617643317424
Cd 11.5859961183479 13.034804119105535 18.215409375208402
Cd 11.701596692029455 15.331384379908695 16.139585133047287
Cd 16.65891098154405 13.55093596885768 17.022397978832537
Cd 16.484937684215055 23.049151514265752 17.395028992732836
Cd 14.068121777409697 20.2972744215327 16.38725699603875
Cd 14.174715699560346 11.978403040993268 17.081286864200983
Cd 16.49364520375749 9.941169040421629 16.098982833422838
Cd 22.137758733660725 15.162088766779885 16.38179842075876
Cd 14.153411007577798 15.1748039521219 17.92064981152801
Cd 17.20357041568519 19.3389815187345 17.342457465790144
Cd 14.944127861371587 21.297192635996996 19.04972034513977
Cd 20.687928535839195 20.116798517651507 17.3432198085235
Cd 22.199017354858434 16.690699283797624 19.067003730325734
Cd 18.78880455691925 21.799013484324412 18.861017226882034
Cd 18.63347013444086 15.196666171265669 18.730693745886693
Cd 11.577139842234063 18.32790394194177 17.326920715846573
Cd 19.513273432968084 18.011188638620908 19.02616109850166
Cd 10.77382301403783 15.777483727179254 18.89449975306048
Cd 14.57217675197755 18.150551442958598 18.41462070640429
Cd 16.182215503270555 10.411958514386798 18.988341234946724
Cd 13.934040415500043 12.012723422793139 20.078494774679573
Cd 12.734378957709561 14.644545282124176 20.77148959498023
Cd 14.469665201155173 19.63087095469657 21.392944775903498
Cd 16.936802497512033 17.318341310822827 20.192741138835714
Cd 12.326996208579702 17.777937272072702 20.312274848083895
Cd 15.852043035953367 14.484293856839372 20.34324116935465
Cd 18.03171509652724 12.455403172100175 19.840542716162922
Cd 17.34286080869362 20.19661607861252 20.760433992381916
Cd 14.581797222378107 16.678905479877432 21.973206390406983
