52
Energy = -23.12629644 eV
Cd 7.381699042182509 12.831237050336972 8.522101968813054
Cd 11.926488674504194 11.079399342774787 6.642135447291682
Cd 9.696963988837611 7.939022971375027 8.120807911304153
Cd 14.686741860219263 10.951199087393695 7.702769645511417
Cd 10.165846217468335 13.580622651311224 7.294779360619112
Cd 12.477909330637171 5.361431946820687 8.043494162259169
Cd 13.201758394953737 13.590762623471475 7.803560713477963
Cd 9.066390188194372 10.719510049846438 7.1476150673090295
Cd 9.936365835596506 14.095997263713588 10.260815642201813
Cd 10.923446711861446 11.080192611749109 9.614692067937638
Cd 11.409951475671486 16.19421551883434 8.483911108405584
Cd 9.951313182233283 5.262339857742824 9.855984549115929
Cd 13.68811830024156 10.319553593253143 10.54178854862123
Cd 16.805734609278023 10.712806416321117 9.866305429476125
Cd 12.882161404513138 8.393018651998377 7.704236919543739
Cd 8.79372464864463 17.580712449806622 8.88744761940085
Cd 15.737924250130806 13.459529250856328 9.533153788374596
Cd 15.913559910850706 8.144499712098026 8.659952836652757
Cd 12.757595949927977 13.128472081754609 10.85172904905007
Cd 7.251887559721341 9.54208555993643 9.149768346894334
Cd 4.608247986830769 10.76872458512575 9.939306043677588
Cd 14.213304202001106 6.665643680089566 10.600758285912429
Cd 11.608662948458974 8.208880740341057 10.452996362968424
Cd 14.140025289714943 16.022795595612315 9.621244369067089
Cd 7.0772947570660945 15.365237822039237 10.161491327717748
Cd 9.21141473115692 16.76788715715832 11.812530395731674
Cd 8.454199997201735 11.544073848252077 11.172888300762336
Cd 15.970313213438939 8.73067985380913 11.950201407319804
Cd 6.301485797877301 9.517280765883568 12.166892901638388
Cd 8.626180872200813 7.7788617311109745 11.156877221837751
Cd 5.695636229692642 12.992489958077178 11.460460925472084
Cd 12.114201922750697 16.009653014063648 11.8759283324111
Cd 13.28592138106986 8.188368381048406 13.288629599312587
Cd 16.019717329774963 11.99550179097596 12.400582066831452
Cd 10.53222003123371 12.894899633307833 12.998049357583355
Cd 15.171454004791258 14.940055674705565 12.23858220467366
Cd 10.853972776468332 6.246972899535132 12.769595957484134
Cd 13.002380148836947 11.426876685977284 13.250285458065196
Cd 7.781468971465301 14.34384237920094 13.137387546840568
Cd 10.552033287176394 9.985101046079834 12.559111995782956
Cd 10.400064197686161 15.67653663316837 14.413144538309686
Cd 12.579151908238316 4.170897927264618 11.032226274406595
Cd 8.216757675235932 8.517882114404491 14.21097493924686
Cd 7.311891538152409 11.527127034422481 14.323316085176415
Cd 15.591935924146442 9.803071105765694 14.72600150515048
Cd 13.35977336159592 15.12346932094264 14.549667854156814
Cd 15.0221988673111 12.74439975108644 15.169997435785826
Cd 10.94120739647789 7.869183485818231 15.23733277478193
Cd 8.957534608354878 13.621183301093845 16.012493080646294
Cd 11.962908593381723 12.923294763944856 16.018423745022314
Cd 9.950056490621048 10.725125003983715 15.638130461538553
Cd 12.88292900175137 9.98952060214544 16.019568040257756
