53
Energy = -23.85726109 eV
Cd 14.06105339789442 10.397469477949212 6.994781587402864
Cd 13.702494412285999 15.215546904279304 7.703619187996296
Cd 15.07157858206187 13.155089226021046 6.1138452403093195
Cd 12.119739196758783 12.64038054933872 6.782883560508233
Cd 11.210627409924898 10.29479995329736 8.325232411311816
Cd 11.185859835727653 14.013273506770306 9.193960670466398
Cd 16.65612366973124 11.755356232650243 8.156722045889603
Cd 14.27239465226484 9.745225998917771 9.82207564279912
Cd 17.14070826502969 13.166529069366497 10.794185905290593
Cd 14.134276801823423 12.764172908692402 9.598365389916387
Cd 15.37112278901717 15.499009014462127 10.216751867867433
Cd 12.523449560421012 16.845889017822696 9.880195497815354
Cd 9.523834926007732 9.435171570837822 10.531037051491309
Cd 8.967460950165488 12.79940274182472 10.817026311341248
Cd 15.326217312992615 8.589725227286953 12.520778410979371
Cd 11.801712186053429 11.611960455534595 11.208740988122157
Cd 17.197719744159617 10.11447492465684 10.589955538506022
Cd 17.63949936531184 10.507550977692103 13.395923950854135
Cd 10.027636748100035 15.56315378545523 11.438543731897528
Cd 18.832932940506435 13.392738478063245 13.198978636080998
Cd 12.307164357609212 8.443687091134423 11.501663991000699
Cd 14.545359419715771 17.39179206695325 12.274713318197373
Cd 14.711134823275117 11.720128047479568 12.393746532013132
Cd 12.977826948046411 14.32907303095899 11.899915803802122
Cd 15.960524867444434 14.568867808656984 13.288094498370404
Cd 11.535487129861934 17.9519263185348 12.44274319297415
Cd 13.152109255391359 7.82232746062386 14.453534145431718
Cd 15.03968542809675 10.122582070633504 15.209485902773777
Cd 10.033802602436895 8.168671622737094 13.351596195631505
Cd 19.41338319905325 14.771189655609904 15.730479638616092
Cd 8.793315772324567 10.864903399874555 13.085695472382707
Cd 12.068331237903747 10.684980291815222 14.03638999573383
Cd 16.682808060263195 14.804217294493213 16.86077733463093
Cd 12.626132355430684 15.80706999831999 14.365942690544209
Cd 13.805894137327037 13.090897866066264 14.817588627698044
Cd 17.054799848976096 12.234756591535124 15.58772124168912
Cd 9.305669337964712 16.270690046410714 14.250434458709343
Cd 7.641710464350179 13.827917898289588 13.328734501345965
Cd 15.486000514674508 16.984942584529325 15.126344517833612
Cd 10.839857254751381 18.719108121829322 15.289735451477378
Cd 12.888043621767569 10.182054042758098 17.422546707426033
Cd 10.814013411877193 13.39133321300917 13.808701626390576
Cd 13.650434981549393 19.471473360012563 14.237935243755887
Cd 13.83724954934745 15.315616776802829 17.232792847633785
Cd 10.925921157754388 8.174438924500812 16.36727314118992
Cd 8.048093179365344 8.795540705756371 15.52921219953032
Cd 7.10435391983337 11.741866828049995 15.424228092623737
Cd 13.276736171769862 18.23588272417619 16.894795928053806
Cd 14.90976810161699 12.366104298341725 17.742639338060837
Cd 10.868999957237904 16.120158969109873 16.936610546033364
Cd 10.012671917567065 11.122359642200358 16.31850797895141
Cd 11.843117999289289 13.167057255127078 17.259231554640813
Cd 8.90535684914087 14.01399808146796 16.245565382878823
