54
Energy = -23.27232753 eV
Cd 14.12919060122656 15.496476626551527 8.608951984524229
Cd 16.94615971666289 16.649535142003685 9.84808728798884
Cd 15.080533729579836 18.902146196361766 9.451945885745085
Cd 12.799347873208825 17.381760291208813 10.556848430282002
Cd 19.458262985341605 17.442307092194927 11.282242406019327
Cd 16.79632447714781 18.539007028570175 12.319253356524449
Cd 15.835953602335993 13.609986438364597 10.223745681556585
Cd 15.00435010081318 21.183728062898226 11.253194514818283
Cd 18.55434295010746 14.290471083820439 11.140098443741554
Cd 12.201055688468118 16.24573631490131 13.234054746574238
Cd 19.666128066143205 12.633670693430384 13.55287716691328
Cd 13.804724466370452 18.998397780575047 13.230143989508536
Cd 15.030282066972518 15.794632748003435 12.296562157319961
Cd 16.12075069537865 21.066750824186876 13.988649340285285
Cd 16.573329140054273 13.065691321411553 13.250675907611361
Cd 17.92438347745386 12.43325181856627 15.887365095011482
Cd 17.721093045039947 15.46053868182324 16.61657753841496
Cd 11.945416176282091 14.93299214581534 15.940191326049792
Cd 20.60974826663776 14.737979933964557 15.520322207444085
Cd 15.029691729006991 16.311266828233922 15.237486062234145
Cd 14.08676580404611 12.997414102608108 14.678463165315788
Cd 17.712236484693097 15.884877006506523 13.739207552754554
Cd 20.919604443736702 15.265184183576562 12.651213453031705
Cd 17.53445972656822 18.45157826244565 15.365110249041344
Cd 14.797519312110799 19.506671994627357 16.32775317796476
Cd 12.349426929931278 17.824072365099283 15.721466030658956
Cd 17.887815016684144 21.49239580576024 16.345441357956787
Cd 11.850655133606072 12.051092204418874 16.591407987338698
Cd 16.83029665144299 11.593020243357369 18.494310758793894
Cd 16.763752933359086 15.432290220795675 19.561468900136216
Cd 20.24716840078493 19.62887750524385 16.553677688290918
Cd 19.832879408499675 13.699856469616156 18.18554425128289
Cd 20.2813976590176 17.656236246884422 14.366981030893166
Cd 16.216267453825676 20.6237513739463 18.72596498194727
Cd 17.774642510451343 17.979602056489107 18.296265609377794
Cd 18.401267524336337 12.8579407460544 20.612451563436192
Cd 14.522420751260249 10.679485043400657 16.910812774611333
Cd 15.16727432033557 14.008300364996485 17.35846012517462
Cd 19.247959445388382 20.708087367694272 19.10988739816614
Cd 20.672034510907746 16.91367045751029 17.58073705520986
Cd 14.48504047913098 16.958108475582492 18.09019561421647
Cd 11.813080140269197 19.376428819225374 18.02960302660282
Cd 16.315278548525274 13.935798001056375 22.742347236481756
Cd 13.584813414989545 20.30234493091474 20.096588361341706
Cd 15.721510188658034 18.2760081764489 20.660171542433527
Cd 19.765004711675452 16.02386991748961 20.22114201798344
Cd 19.00476766501946 18.83792956039227 21.362637300945675
Cd 12.592659708048686 11.294366385501869 19.359573205072127
Cd 12.396122233557742 14.553313514950764 18.88487998085748
Cd 14.733768098431106 13.055004129477116 20.324515564011914
Cd 12.108221731034654 17.31091950828209 20.17845984756579
Cd 14.230593866675184 15.77979153377147 21.50712768271853
Cd 19.24612009457172 14.622184293186331 22.786917444410243
Cd 17.27710478582743 16.844200621433814 22.740941477040504
