55
Energy = -24.75449792 eV
Cd 17.886069284570723 15.474765023153363 8.26719820877657
Cd 17.695243916566803 12.975215642335735 9.912658391845643
Cd 15.319532163696257 16.350800732538048 9.53080783318761
Cd 16.411338530735517 18.278684270351093 11.571787135088803
Cd 13.046409648219687 18.00837787407986 10.957854826625201
Cd 14.880482233665843 13.234517751042755 10.339384160227198
Cd 18.128102297126194 11.243628418474326 12.313825896403706
Cd 12.633822290399069 15.192935982868816 10.198839885826388
Cd 19.61103767201286 13.969038308755236 11.920034061564404
Cd 18.97225473009587 16.701606971434614 10.776540194860944
Cd 14.983006100727591 11.045399768705959 12.393895464592365
Cd 11.230437683523807 15.651922156546433 12.837157344379674
Cd 16.62238111727672 13.215677573843479 14.228524896838668
Cd 12.761455432559412 13.102070761857602 12.396723132613223
Cd 16.66089733640174 15.208060486740925 12.100513766253446
Cd 13.918048921391 13.991780321804 15.16931797922862
Cd 14.245969028961769 19.890092611986532 12.85497901389585
Cd 14.26810885317449 16.346671017124475 13.404037022886216
Cd 11.84817286446405 18.40232296059958 13.815566173282456
Cd 20.1622089586615 16.23909783755461 13.79791467365094
Cd 19.145503807774332 18.823588739072484 12.725890411658684
Cd 10.697295125749475 13.242212028016963 14.602150003871614
Cd 12.60771659397639 11.005413449724763 14.669758129243064
Cd 19.862399395985676 13.423160797645167 14.806237922364325
Cd 11.325178374976126 16.01751089093462 15.74251409794808
Cd 19.436343811027367 18.629104126355195 15.602052659350171
Cd 16.83052237993614 19.0006954184068 17.22815019221639
Cd 14.205060748147595 19.787040028849095 15.84067641569628
Cd 11.515300166264964 18.85029271511634 16.70087419321888
Cd 16.818865521284252 19.70724879384735 14.304069726089676
Cd 19.58258959057094 15.755822247485012 16.743003011526742
Cd 14.435554094178002 16.71991499018309 16.357323412298417
Cd 15.457775437076355 10.422100409170199 15.156132541005274
Cd 18.55954153018668 10.85090235974462 15.262669376619504
Cd 16.423573145632442 14.3879824596481 16.896821103833865
Cd 11.622081126065313 13.579940373717923 17.44558889206859
Cd 17.079518206787085 16.502653122761274 14.769317890970655
Cd 14.183563527071705 18.872134378705532 18.73993632887303
Cd 13.945017879776406 11.766098164496304 17.39120544574488
Cd 12.071626419742257 16.451246178989297 18.66720871365743
Cd 19.499984410385533 18.19739699345176 18.470227215213498
Cd 18.79876915543153 15.141037763304432 19.65590601281089
Cd 16.79830247154058 11.001721970863265 17.65200440971361
Cd 14.064750549957386 14.157656272715501 19.17755199604621
Cd 16.144712727847228 16.523939378136582 19.0050296217046
Cd 17.42865875048239 19.1632569660709 20.367365610303715
Cd 19.14806692596836 12.920516520223716 17.64961093279331
Cd 16.749761596923477 12.872508053901175 19.822069587102877
Cd 10.614435782015931 19.844218464254002 19.243384277143665
Cd 19.893776913591427 17.407838371952906 21.2342047382947
Cd 12.251894999054262 18.688354182899676 21.297515008877415
Cd 17.61711287835156 16.88499589097543 22.93837941445398
Cd 15.851011458486159 14.909685018362394 21.734514349581207
Cd 12.96382820133125 15.848200463566743 21.522084419628484
Cd 15.092228302137238 18.128246614600595 21.798312945994788
