54
Energy = -23.00720945 eV
Cd 13.97769453539608 13.449204520551147 9.33785342053833
Cd 16.324999617992898 15.671060546796395 9.218896053516426
Cd 13.620621953983482 16.24546172065051 8.019117003259309
Cd 12.857195992612718 11.82879209780643 11.541439753148442
Cd 11.75303260647901 17.274042702430656 10.036247308490246
Cd 11.354143169017068 14.463232254166469 10.87367189524672
Cd 18.54611245596605 17.3659554028822 10.231280028908687
Cd 15.88843335379673 18.29998051049695 11.153464000645588
Cd 16.388985684945016 13.23661272155209 11.381978026797691
Cd 18.980597423062527 14.42024371519381 10.330435128599497
Cd 14.353983413962087 15.63166839446445 11.618340586646482
Cd 13.13341471852935 18.594811241794424 12.235051597155334
Cd 12.608028524101886 14.078223466225232 13.653976041355815
Cd 15.352289482144732 19.291379967022305 14.14866834960859
Cd 18.819903428402277 13.66979558341847 13.255692249487879
Cd 20.009634580141203 17.442488685441987 12.769733119471404
Cd 14.482616308643607 16.393426500700983 14.490155176200155
Cd 17.077785203315905 16.104622660896343 12.975376623392304
Cd 20.744800865513497 15.567688968780127 15.057821402602144
Cd 21.158384657945152 18.528299840897166 15.288829401782001
Cd 15.010990628178112 12.0968158008237 13.734648787725906
Cd 16.497403814335193 20.176315598493353 16.830855304582364
Cd 14.479797992373154 13.830143724868186 16.086569937332975
Cd 17.39218810365537 15.27278173978427 15.794504882667697
Cd 19.375968889612214 19.568651365200363 17.470979684294274
Cd 19.952064333704268 12.739570063856062 15.734458589922873
Cd 17.04533726568104 12.084436094824913 15.821634409366888
Cd 11.913266964978009 18.227386047869913 14.852049019439578
Cd 13.459254269769616 20.392907548565226 16.28388469376291
Cd 20.540087190633663 14.640763912322706 17.929614124192483
Cd 21.51331336430442 17.49126038778493 18.019886743892133
Cd 11.671387265189427 15.490990855518001 16.082249128385037
Cd 18.01430765721622 18.271674791379606 15.04727766705253
Cd 15.283225579774284 17.27559412761759 17.141464298966252
Cd 18.579105396664648 12.242811461531778 18.411145282368647
Cd 12.1871317120107 17.989563628006945 17.834591583935513
Cd 14.406273911480168 19.760116396144934 19.05630501866263
Cd 17.323353845226844 20.052305284216345 19.719127034481637
Cd 16.239395590328552 14.144085282410945 18.486330969916057
Cd 19.785364458647674 18.60478122137723 20.44180539643658
Cd 20.05196172370369 13.504494958164027 20.71021370248839
Cd 13.332698442723908 15.294941341316154 18.63237977407274
Cd 21.43639251730855 16.106897247272727 20.624164594351427
Cd 12.744510001843025 17.716746444567654 20.733063855135857
Cd 18.159825429132386 16.5771161109976 18.30396481693544
Cd 14.77637197478389 20.41223378180453 21.881915972290845
Cd 15.713715401414353 16.951518253200977 20.091692748923396
Cd 17.22810187631056 13.093066103272816 21.267940382810572
Cd 14.368341525167743 13.751601501955662 20.86919639615538
Cd 14.360166071166072 17.8520622456246 23.333902563082418
Cd 17.18468057521954 18.621976089370033 22.372256978605332
Cd 18.39148274161524 16.016194262296153 21.41384243139055
Cd 15.925793462357085 15.321794570392923 23.123175555780335
Cd 12.724338685949547 15.36966689340856 22.745137142148522
