51
Energy = -22.29942695 eV
Cd 11.847328650193173 12.298380543540093 6.327206562031945
Cd 14.631290850697422 14.598086776565085 7.663885228871196
Cd 11.674597496160564 7.388833397877164 8.140067026146697
Cd 14.833644141293888 12.098492018103144 6.1169727555039355
Cd 13.16898450292125 9.791850492753474 7.402576919778481
Cd 10.17792294120142 10.997457230937098 9.909901752910248
Cd 8.798061209312095 7.8103149382268455 8.837482793006814
Cd 16.20556851627727 9.597743434494669 7.249831350735582
Cd 13.66421935015323 16.36742115898515 9.903535841511852
Cd 9.22202340150591 13.071995498408679 7.460982756318299
Cd 11.144530003324773 8.40690555742416 11.029499919944344
Cd 11.682908873166538 14.785246569714372 7.996664912468418
Cd 10.092420812680231 9.951077189151944 7.1394715216721405
Cd 6.894136369844473 10.023913457203621 8.869990069317318
Cd 14.779683671168353 7.311834047694792 8.50459673582334
Cd 10.019273376317331 5.262018343552585 9.885842992607735
Cd 12.948656026738385 12.2426784876136 9.34627561655982
Cd 10.675715483106886 16.842724867345648 9.845617230507099
Cd 7.13056785264483 12.837883498868468 9.448612259916127
Cd 8.026652660058907 8.989567105134931 11.528218472464127
Cd 8.743276701354048 6.223506263959973 12.372024127011015
Cd 14.934263873733986 9.952012901281023 10.200673973345374
Cd 16.278232721186733 12.238307713650519 8.841269894450207
Cd 13.02421039878159 5.221004371895281 9.698401716531405
Cd 10.587279820509641 13.766625349727969 10.778283690484741
Cd 12.586048441972522 10.826158358919406 11.909304202297676
Cd 13.583532494958988 13.815748495808032 11.89802406236793
Cd 16.166587007126502 14.861991955755494 10.36734790891582
Cd 5.579586931025255 12.695245665780376 11.966809742779928
Cd 7.893559305952173 15.590583673088673 10.077125380995962
Cd 12.221173682161353 16.34113858243806 12.517426741831539
Cd 9.307586869908459 16.852252291426534 12.460097013160276
Cd 14.048366859528329 7.484450137924007 11.580499573151595
Cd 16.134005726758588 12.16190805452748 12.063905720451025
Cd 14.922095979427796 9.736457112932172 13.540114695511631
Cd 6.174978910269015 10.12088876330971 13.555525011476934
Cd 8.64526792585074 11.963313702499635 12.224355997075092
Cd 7.804640208695718 14.709161250628254 13.459192481721402
Cd 11.746870575739978 5.623801498902691 12.458779113037801
Cd 7.937054022407799 7.992264293730948 14.647691872898077
Cd 10.446172811083889 9.71557824343556 13.651489223616519
Cd 11.12693690900205 12.795075454249961 13.630736232238588
Cd 14.467008106719744 12.613990793350732 14.529948445283129
Cd 10.703759662549063 15.727009599081853 14.99211860015877
Cd 6.346477137234298 12.76062856032 14.943807585221247
Cd 12.817376299658694 7.747311240234894 14.416174927351928
Cd 8.48734778436208 10.727692602200623 15.654056165897043
Cd 9.040083300918033 13.577030721623299 16.209139533214007
Cd 10.265446131659552 6.3066340044267735 15.17319041871825
Cd 12.689152391468872 10.397402841537023 15.656860606328914
Cd 12.130207643397561 13.237173711927323 16.375165448550813
