50
Energy = -22.51864016 eV
Cd 11.620094813640911 13.35051922127979 6.471207441077104
Cd 12.890758262567308 10.535839820862265 6.998303745337273
Cd 10.03757345566615 11.168233158115298 7.5940787275855905
Cd 11.695241822757994 7.925565893754883 7.867921725693281
Cd 14.513712910384282 13.182920740805798 6.963912106260867
Cd 8.855059035882173 8.518468548828928 8.034744489208787
Cd 10.138054282191261 15.087227195313456 8.28165148020289
Cd 13.317423570739019 15.574681434212076 8.256462501092205
Cd 7.589062907163575 13.72076569976697 8.797846102837493
Cd 14.704649905087244 8.13468671574686 8.0389274635121
Cd 14.93108767305107 11.088840508453451 9.119778486556045
Cd 12.092836054093913 9.960517591975538 10.25540425368209
Cd 7.044462186549768 10.863398378328903 8.387743522540106
Cd 16.001487826653687 13.943915608574436 9.43896156244205
Cd 12.299507497899915 12.97719711100528 9.679789880543025
Cd 10.23602491968137 7.354484801834602 10.516608250507169
Cd 11.510327750786034 16.833563030536716 10.294146017993892
Cd 17.259218953211583 11.468830013835104 11.00883512215361
Cd 9.127881073283655 15.0196100371118 11.095516739974379
Cd 6.515581524492882 12.190535261735556 11.134779974860962
Cd 15.834173422371268 8.744377897416742 10.782856661872657
Cd 7.7627655321559 9.139434583100496 10.76099902047562
Cd 9.687345356199794 11.800803793262382 10.576207480933792
Cd 13.329029357976925 7.01993104887192 10.46796002857728
Cd 14.118632027645319 15.442983214107162 11.186146789863605
Cd 13.91924299051659 11.980289647700442 12.06593801020682
Cd 6.951672193759589 10.229020753429541 13.370907645534919
Cd 16.499952892772715 13.932062411388179 12.402668617989113
Cd 9.21925643051348 8.151744666220544 13.233515698603057
Cd 12.34237289267278 16.940292634834226 13.214630955499993
Cd 11.029868713024072 10.745019324109947 12.956150083050062
Cd 11.566546348260765 13.881952605062162 12.45503845445605
Cd 13.610791441294449 8.90366973724235 12.884607580593514
Cd 8.43618614003148 12.800198923624647 13.35330137321663
Cd 16.38662839208432 9.965616840336335 13.504026329575495
Cd 9.168334126063936 15.552038775882286 14.136006049176821
Cd 11.799703940299304 6.440775545535909 12.950693142443695
Cd 9.631422562260605 18.013933511422092 12.522338496440026
Cd 14.496325658012461 15.115204720191413 14.251387568536177
Cd 9.0376701639627 10.314639738671291 15.40203074140231
Cd 12.656973547520737 12.397372365803735 14.852019521040106
Cd 15.676858765752261 12.446083591291227 14.931777725267628
Cd 11.595951967397498 8.430594571849877 15.166034307497027
Cd 9.800651205567098 13.116920075207881 16.067915562379948
Cd 14.256823898962683 9.890151894504182 15.761149525001903
Cd 11.799376230058586 15.216289088231838 15.578900151990558
Cd 14.381806716275998 13.914605856166327 17.32163343434865
Cd 11.474399817977268 10.648101421888645 17.094182763883882
Cd 14.068646070742975 11.169795944176316 18.591623170431042
Cd 11.699411396344995 13.375160670654902 18.539600139913198
