5
Energy = -0.49405882 eV
Cd 13.853066571273963 15.41225734082301 13.58519154025834
Cd 11.930535795088698 13.399132314973969 11.93593772122557
Cd 10.652029851323803 15.148778756553167 14.367602351322034
Cd 11.742364993568048 10.202386359580222 11.626996817054689
Cd 13.817005395756585 7.832828896628594 10.47950504483456
