54
Energy = -24.32861818 eV
Cd 13.768241017293123 16.46352248360413 10.762828464970001
Cd 16.052142480479738 18.40350441062983 10.918946079934756
Cd 12.84784479540708 21.067964057908856 11.138626826073416
Cd 11.635699210657561 18.46036047484172 10.504605165105415
Cd 13.945966960709711 13.493049783426585 11.189378689919893
Cd 16.622178000455403 15.483121018126939 11.264605752677642
Cd 16.824040311315336 12.584446491581328 11.68857432350642
Cd 19.224483626748533 17.272894323927325 12.186069412690381
Cd 14.480498546275308 15.649423087248605 13.771577196867803
Cd 11.92734685913141 13.616661601564735 13.34016950627774
Cd 11.57676176893343 16.683392048017677 13.020347889987107
Cd 15.716737847249552 21.400110342492955 11.655725692638791
Cd 10.50446996316607 15.23027856872416 15.413586566763238
Cd 19.56363989197262 11.747632995405615 12.706357669534379
Cd 20.65286219187675 14.061093102283747 14.23978344958268
Cd 18.550908789062508 20.064115993428725 11.486740019481353
Cd 14.506804986197967 10.69945189385389 12.211538742276867
Cd 19.434354669224717 14.461559242821274 11.51642321652639
Cd 17.395602201051044 14.47421930811754 14.286305583003015
Cd 14.815985733559044 12.802161529682332 14.611747153555331
Cd 17.066670100412757 10.645876929581613 14.007156479048419
Cd 13.108211027550214 17.729722877618983 15.6891006288782
Cd 10.723357945467626 19.753088005630964 13.057009982673119
Cd 14.055984516091943 18.97043488422002 13.23915607401978
Cd 16.827396731073858 17.698375707272866 13.846294623430298
Cd 14.608099556219976 9.342274558620199 15.177213986864425
Cd 11.22029734575498 16.86769618311923 17.81562285136471
Cd 17.3549563933548 20.871713931680564 14.081099614153361
Cd 19.15379633144652 11.769811652312596 15.70710941777855
Cd 18.5100579602128 19.179195692712305 16.264353700967895
Cd 13.488552970747321 14.711837780273974 16.52288000160384
Cd 16.79289751322985 10.202389444806826 16.994719643235392
Cd 19.600164320303236 16.67694574063298 15.144310059072115
Cd 15.409519719458784 19.614059052621922 16.030325812665403
Cd 16.245179877046635 16.42587202420174 16.373086212497554
Cd 16.594141155781443 13.427205381453849 17.00250138525063
Cd 10.04196953723141 18.551102726981426 15.588627640238318
Cd 12.212946086771455 10.610658407987998 14.039674862958613
Cd 11.346366095560334 12.347050556555185 16.13966694774364
Cd 13.950190261715683 11.374858968799616 17.37857474729117
Cd 13.907670881501668 18.052293344895826 18.568302589352324
Cd 18.839492562791857 16.885502536050065 18.21297777520289
Cd 19.083653878513566 11.553588211447371 18.64233063733636
Cd 16.676268826382525 18.935702591315348 18.694051459209064
Cd 19.914279853287773 14.309254939165358 17.148926444047106
Cd 15.265032534444533 15.325527456228107 18.90828882922525
Cd 16.305512836650887 11.564638430119553 19.689056303476374
Cd 16.846271999586364 17.003868750043413 20.88353894380727
Cd 18.29723938158938 14.28734047424926 19.673103792651073
Cd 11.11965744184041 13.866954477726907 18.589331337306632
Cd 13.66706265665637 12.926519172133187 19.9215229687779
Cd 12.588349627143137 15.902285156022131 20.31808301589601
Cd 16.151750617975257 13.839505176933015 21.69710164568865
Cd 14.4797168442663 16.157171257728887 22.54024742374395
