50
Energy = -21.67059157 eV
Cd 9.220134348339323 11.367971982336893 7.012766589786462
Cd 11.470156327717051 12.71533623896795 5.189939885616473
Cd 12.653899642426401 15.285045336885418 5.882277848711354
Cd 11.827635298997755 10.05288387149477 6.430306590306415
Cd 7.350824011159691 10.479208098843559 9.089583946683252
Cd 10.664750407772912 7.928197887264159 8.179674342644631
Cd 9.766053030612476 14.620472874984788 7.007356025589456
Cd 11.455026756901866 12.94576507068311 8.81147696215876
Cd 11.958214826278061 15.983549283746672 8.790167263685923
Cd 13.268320722660993 6.82529276637091 10.24510545516918
Cd 11.10218389601957 17.210764535157164 11.288724344144292
Cd 14.02990646112522 11.995377101036363 7.231562546618894
Cd 16.174139815278625 9.841171173995587 9.852016004177274
Cd 14.702945434491072 14.917270228797408 7.96998573503787
Cd 8.884053989783991 15.823001991848454 9.665139020764698
Cd 15.166802254860484 8.451552943306158 12.212144967922397
Cd 13.721961447780064 9.121922918894336 8.444278764296534
Cd 6.712293918369491 11.137664883276967 11.877993640317891
Cd 7.334374571552514 13.431154244342276 8.395964819826798
Cd 10.498460367537227 10.426931703656933 9.961027345804691
Cd 10.407681773788486 6.547115524870261 10.76848222776416
Cd 8.905997026454182 13.001295305164508 10.86966059492017
Cd 16.322986109180075 12.665313545201885 9.089596344186111
Cd 14.955110056500027 14.634945806003241 10.903217790840067
Cd 13.456748491380916 11.595436725433991 10.505308230291318
Cd 12.277423916379892 9.264960934986364 11.981636841296648
Cd 8.342721993880994 8.608368818777928 11.223789322506967
Cd 16.251509048086678 11.902589769221725 12.039736509949432
Cd 13.258251029783183 6.920648724598786 14.086455554125502
Cd 8.807038605027923 15.567820033782846 12.703262190856892
Cd 13.685646666351955 16.390728801594875 12.867269532130884
Cd 11.78678516944847 14.011106515435985 11.646250986180492
Cd 12.120853516478654 9.8090465876017 14.968495231161207
Cd 10.22894111076843 7.550250650231577 13.559815322163244
Cd 7.3908556987394105 13.161827933553107 13.812219903192416
Cd 11.107332160266575 16.71632624034698 14.264077762599973
Cd 10.341334870670748 11.432869826351098 12.934162624150925
Cd 15.624407404720936 14.23173636543877 13.80363440135939
Cd 13.24759643956822 12.155594637920291 13.447131875595144
Cd 7.965074583310139 9.55048447253083 14.07856860344158
Cd 15.575261574700562 10.226592984594793 14.527795342979717
Cd 10.164752808554343 13.969199319699372 14.906150437270716
Cd 12.366251579356335 7.166908983922731 16.937620594465223
Cd 13.043403953036456 14.781386707514034 15.495303072143017
Cd 9.642453287051044 8.548680196022138 16.48101357959997
Cd 9.03139274354851 11.51072950304258 15.9725472589356
Cd 14.712200072385928 12.518003700497822 16.244241840122296
Cd 11.782574754086218 12.162354589436182 16.928750338770413
Cd 14.24238428422882 9.728011568571398 17.277260442172665
Cd 11.480928759132912 9.597167108293876 18.627090162097396
