50
Energy = -22.08156969 eV
Cd 9.874696790392903 11.925309902233744 5.557306403605126
Cd 11.08078717097492 9.004637491638238 5.49422247255807
Cd 12.104493845276705 13.869362363501088 6.129484282246653
Cd 8.377513863196965 9.484523504755233 6.473621213370641
Cd 13.121233183894626 11.074731317536413 6.274707666521926
Cd 9.772269197074 14.579839879025384 7.851956612127936
Cd 7.931326364232784 12.29154552823294 7.900692454850531
Cd 14.074989988931076 13.29572737330829 8.326278505015196
Cd 7.555463836560356 6.493948656901764 7.291661029603099
Cd 11.004335686263111 11.370126021214494 8.512026193920006
Cd 12.738080941286757 8.24666785365609 7.81023070004145
Cd 12.423563550503394 15.662929638154274 8.83772575489417
Cd 7.055739263291119 9.68116099933987 9.102064476668419
Cd 14.76056757357303 7.795585009284182 10.029669572518326
Cd 14.228737290263561 12.323975177355532 11.195881257639998
Cd 9.931784654750018 8.537455817932734 9.068384715149822
Cd 14.62678779147068 10.44434929751968 8.822709228362692
Cd 9.944153499427832 16.69059138403655 10.339817987928257
Cd 8.01622209802293 14.387571893066651 10.24454081564615
Cd 5.880794349814251 12.353652510052072 10.084966143755926
Cd 11.417575315099064 13.348944747481626 10.688847583828634
Cd 9.155273085725263 11.278390290353798 10.850641678764582
Cd 15.105333783060619 15.291427787054893 10.553959730251702
Cd 12.286412776586255 10.060320930347968 10.906700856004528
Cd 7.796459544586492 7.385737569630518 10.904369398411658
Cd 12.492325634322857 16.41450027865674 11.853507706685251
Cd 17.34116549423174 11.078038789105264 14.25087951649668
Cd 10.019137144293497 8.909441781919575 12.439473936783521
Cd 11.8883691878548 6.818430496867754 10.490657229131015
Cd 17.165455033788348 12.889856892887082 11.715512595408855
Cd 10.966016628359842 11.641772499901252 13.244628973063927
Cd 16.133852253197436 9.868886774957463 11.683443231844645
Cd 6.220179244308531 10.015108533143815 11.932180350990171
Cd 8.606964713695428 5.495988394073873 13.086332319654721
Cd 13.065057234026348 14.020830023092977 13.510215002160429
Cd 6.798008716214678 7.719174132807086 13.79260256639054
Cd 7.107912827301174 12.931044535092699 12.785549166625461
Cd 11.371444400632043 6.14039651833642 13.3467563968555
Cd 13.948410051199568 10.687491225663967 13.741800086199682
Cd 9.717317311270818 14.785460739330027 12.868561993277199
Cd 13.719762143267799 7.870809364886777 12.788665321629598
Cd 15.308599316631016 12.916057745734829 15.41872408382391
Cd 11.13314930730639 14.787186753143738 15.600187311223642
Cd 15.932971779886069 15.089008258877909 13.424046974703515
Cd 7.84874010321453 10.44173444222342 14.363269951797005
Cd 9.362567192213533 7.697895695578704 15.313574322319276
Cd 12.03364637409872 8.904431655466604 15.064109029747131
Cd 8.78498475987101 13.069441312148031 15.261203278179389
Cd 12.478744945126794 12.050694506412395 16.023804828126856
Cd 9.97681936575208 10.564002312401122 16.434043699520146
