52
Energy = -22.52692923 eV
Cd 10.838515365831105 13.164912607551042 5.89378449130871
Cd 8.075416194587476 8.885615268874307 6.595804819598669
Cd 10.458654923453144 10.11185138795547 5.419139852293194
Cd 13.181117298295844 11.204545450494082 5.4958405605243446
Cd 13.620635961115639 8.410474461138138 6.568605838275061
Cd 8.145802414565246 11.843291992094661 6.524445171951682
Cd 11.157799293562412 15.490979440657702 8.0920637659744
Cd 10.694725198899095 7.644690906013464 7.263666082410973
Cd 9.1773248818411 9.966971714547379 9.408239108748445
Cd 13.530586769560182 13.615552299305396 7.3140679600433085
Cd 6.223942535878159 10.490954669121848 8.384566579613056
Cd 12.888914596677475 6.309951117862401 8.706396176171086
Cd 15.033965091760052 10.810727982970217 7.877995780985302
Cd 8.491445235916954 14.684234519372684 7.026084326730012
Cd 11.907906838261274 10.701354949786376 8.305803927693729
Cd 9.985223838698072 12.755493241812733 9.180734812061674
Cd 14.928804791260383 8.253506420219443 9.382451650846754
Cd 6.578416596462913 13.32372417751732 9.034006312210618
Cd 8.281666541889198 15.42756477907502 10.019262826403574
Cd 10.350308214948415 5.3344207130657555 9.824637293635302
Cd 8.00785541763089 6.757160187821581 8.621495717482478
Cd 11.95473248528598 8.780380393889047 10.568282127478207
Cd 15.576677432359439 13.147778743079245 9.509300344617479
Cd 12.673377191032476 11.665807036104434 10.99243548616494
Cd 6.820811539905735 11.327409350479133 11.278237998937746
Cd 13.23406106767384 14.820668622189189 10.12119329058198
Cd 10.051676690299788 10.590871841743708 12.250518158108607
Cd 15.593378812301674 10.593685530612085 11.022513901075655
Cd 6.22904996105644 8.37878408282187 10.438695923106197
Cd 9.20862504130792 7.6493753280852745 11.329291721671996
Cd 12.461141344142822 6.001929676432105 11.949255150279772
Cd 9.996238304457822 3.8866000286780613 12.543866707798765
Cd 10.801582315359507 16.439343974802902 11.00435566033366
Cd 10.53355521837614 13.47327525450315 11.94179859538405
Cd 7.5449590589953 14.00116046193409 12.561017957849028
Cd 14.787547031530579 7.990435580963714 12.349370901537664
Cd 12.092255860939199 8.47480811304597 13.809928878911778
Cd 9.816057103043288 6.517541535823364 14.006319264483043
Cd 12.831048165922605 15.677352643790565 13.071597222061776
Cd 15.035964486491238 13.411803613920169 12.422484684213591
Cd 12.612639740281976 12.920265054357174 14.057568301722922
Cd 9.687739397705595 15.942348920498505 13.893679553181347
Cd 7.254768472246625 11.481479110080022 14.180222441121423
Cd 9.447124814341967 9.443087429625383 15.045171633667332
Cd 7.230140729840545 8.710150318729466 13.178239656366028
Cd 15.60326007550029 5.043747326424305 12.740872844639558
Cd 11.742509949753423 15.402817055121268 15.986184579576138
Cd 9.737387920145162 12.824839211776878 14.896005434981353
Cd 14.302628887993547 10.545728592577092 13.778688346060575
Cd 12.166582446461941 12.989785059943149 17.69562394962098
Cd 11.972497404473861 10.669507011213089 15.878435057384225
Cd 5.3254850383173045 11.893786798138903 16.444283160756683
