53
Energy = -23.63224734 eV
Cd 12.022988943409583 12.038252156433442 7.7410958088248725
Cd 14.799382918041658 10.986934994699324 8.499001672821873
Cd 12.423453029681253 9.0984929080226 8.304247208841186
Cd 11.732462932736551 14.919379482240902 8.259437141493501
Cd 10.25594574896692 10.439370673722138 9.833697548772703
Cd 13.455661383957443 7.027013836766325 10.059710412893605
Cd 14.569599230974687 14.079372844622766 8.670448153123376
Cd 16.280804889120297 9.742028442016325 10.713646323234633
Cd 13.63883290215135 16.91904418420902 9.436053208378276
Cd 16.73908899568548 12.72694254995003 10.212312591830258
Cd 10.755487437642444 16.329561276108947 10.80741172154455
Cd 12.392334270562415 19.142943679518943 10.861242765883215
Cd 16.204754082406517 15.702096690418832 10.686546236385523
Cd 12.667447421834552 12.537132616279347 10.67711454936135
Cd 9.77639359334633 13.438679765849637 9.984045497621503
Cd 12.45588602523817 7.172240655864097 13.00056809995988
Cd 13.076036496486193 9.822873506571717 11.529598457021123
Cd 10.21726422318461 9.168862791079961 12.567701965162216
Cd 15.098994322545659 18.079196319813605 12.090299418136523
Cd 8.481476689512089 11.540458161787182 11.984782668507341
Cd 13.392166070964056 15.009823645638612 11.902960046713135
Cd 15.597852408924526 7.1998636257408295 12.126369984975865
Cd 14.923507497697665 12.73223228245841 12.769270035447917
Cd 17.78786031420502 11.356424284264644 12.731805505724076
Cd 17.86253652978742 14.36985788025179 12.620391430067517
Cd 10.13757613548675 20.08472244988176 12.715835607910634
Cd 9.374755663302802 17.297313030384586 13.420872739670562
Cd 11.54177154211399 11.918481443220582 13.336342471701409
Cd 15.383375697132761 15.685443664853414 14.150786950746527
Cd 12.397622475755538 17.30393167763338 13.49384999266778
Cd 13.022847822852322 20.893627668426934 13.173065860568597
Cd 9.613641683419178 14.301543085197368 12.857761650112671
Cd 15.002432267183707 9.941219709423004 13.757651502345528
Cd 11.124511853051533 9.56096780772308 15.364083329860495
Cd 11.519472476233654 19.678465125808934 15.488404794631618
Cd 14.715728130517554 19.209548517678133 14.873020966375234
Cd 13.692450092019733 12.018400084884336 15.380665140217793
Cd 8.732233844885057 11.736704488938503 14.872849113886586
Cd 17.13191453109677 13.47514093072425 15.308502723917412
Cd 12.24937167540938 14.523363844179476 14.640152098948507
Cd 16.877374011650957 7.564918899479168 14.742986856972632
Cd 17.48789806832166 10.534635743149536 15.475820033078653
Cd 13.738632758329985 7.678422468788067 15.54861048166415
Cd 10.182528353454096 17.262799858054038 16.45204099350577
Cd 13.48213643465998 17.132486307237336 16.5445584665386
Cd 10.772619322510863 12.121368737399514 17.011786967004223
Cd 14.912297338327502 14.596726934554379 17.06953077886639
Cd 15.775920815972118 11.735427501688232 17.658243959877442
Cd 9.302362082898455 14.529939967586817 15.792894408848449
Cd 13.025714161130226 9.84920422978797 17.661583977879936
Cd 15.859982955851828 8.748907718793435 17.311280016774617
Cd 13.183964113391035 12.667442984260628 18.772383111747555
Cd 11.767114922929542 14.986235454886558 17.671146139907805
