53
Energy = -24.28506481 eV
Cd 12.864456476155231 10.13815516390831 6.787012576503429
Cd 11.248159884526077 12.46744012534875 7.838315557795187
Cd 12.467285102254744 15.268588630158826 7.228071650615819
Cd 10.596057675503351 9.648976096918327 8.833376853017926
Cd 14.218222190260464 12.605061605408444 7.706051152372602
Cd 13.155225132515824 7.984336391717448 8.700604270137259
Cd 9.63192597056867 14.731036467196493 8.998435481013736
Cd 15.462461452986284 9.982555400376228 8.677023803964996
Cd 15.344219104937954 15.2412769719204 8.380748407702185
Cd 13.026747713678667 10.996326115902063 10.393989111822071
Cd 8.73086381403486 11.916136038812382 9.34887813088206
Cd 16.81083732071187 12.657607324418775 9.216466306771371
Cd 12.910700276177627 14.091996177789293 10.267084652126673
Cd 11.599963729015746 16.931274565859493 9.547176731432156
Cd 11.459558746315814 8.1803117315766 11.293497692070995
Cd 14.694877157273968 8.205510884478807 11.229357092678752
Cd 16.843783873095656 10.203886670884431 11.396568134989712
Cd 10.001826708880433 15.653027041322238 11.814584157285964
Cd 7.861833928946834 13.440190213515319 11.608321519893746
Cd 16.81211766646665 15.24280762119856 11.054319256522257
Cd 15.002929024355359 12.792874235128297 11.952847961341762
Cd 14.446337988587151 17.018165056084353 10.527288297641547
Cd 10.920834457171614 12.531678551126905 11.907570275576168
Cd 18.337761426767177 12.729432905899747 11.72710853051098
Cd 8.989971953686798 9.91283578485693 11.485143750862278
Cd 12.915234264757519 14.692243978670584 13.13931316408968
Cd 13.091143784568882 10.933298788873822 13.358730491826071
Cd 12.258139423332508 17.786369846172498 12.30964132498595
Cd 15.39625280489453 16.596589649645143 13.306540154491369
Cd 8.544970283264648 14.427542027051578 14.233503177495288
Cd 15.59475030481107 9.064354290977635 13.959005212541639
Cd 11.172563367127605 12.889834329885698 14.863269856277554
Cd 14.808506478837124 12.998355077032091 14.94139788790469
Cd 13.0416095943899 7.548578914728177 13.647887850797899
Cd 10.48614699263481 9.240869315144801 13.98849579604541
Cd 17.40210523015288 14.423062195719403 13.948078735251228
Cd 15.809699020415435 15.559186230643224 16.164578032383094
Cd 8.468014622687798 11.457936137957034 14.003339235775815
Cd 13.410290278006324 17.85589662649735 15.07324761146214
Cd 10.688651431703185 16.582638124491464 14.579592612115363
Cd 17.378095660860854 11.3997953571308 14.219883813486959
Cd 12.8646930629911 9.195201841187966 16.042724732923922
Cd 13.054367499365437 18.203447161022687 17.940198415432924
Cd 9.771258582628203 14.829783126552714 16.88201384077006
Cd 12.82641030386626 14.995266180625128 16.33532612220346
Cd 10.064412358539428 10.697010864170803 16.57637587105098
Cd 15.730772376652466 13.082856753018662 18.362407701353533
Cd 14.826263524078293 16.02682794187424 18.96612289152596
Cd 11.214461568990966 16.18313559352234 19.10084267312277
Cd 15.629890713286422 10.572257485646993 16.553281822421194
Cd 12.940979309486506 11.91352621424163 17.177114516459167
Cd 10.301515293861144 12.586809791974476 18.872762836777756
Cd 12.971611143459318 13.787606438259782 19.636250318019673
