5
Energy = -0.37654933 eV
Cd 14.120286385301185 13.980268431008007 15.356055684993558
Cd 11.794158823395328 12.385850193828485 13.623908409442937
Cd 9.175594247836317 10.926910840370343 11.981159645263283
Cd 16.534635453126025 15.200482595219524 17.25235090666999
Cd 1.409646523853338 16.603590204691468 1.7769501071946316
