52
Energy = -23.23765175 eV
Cd 14.056280823486723 14.445415916064874 17.615415570621007
Cd 10.645861844968838 15.315677276073641 16.168829713795922
Cd 18.890070114352035 17.91593740792207 14.951032795198383
Cd 13.659574465562498 16.654503985026576 8.95966763596128
Cd 18.635842314103147 13.559852492416109 12.138467563917382
Cd 13.68610760433839 19.628607815512865 15.881669482666315
Cd 12.779557957433125 17.254993469859567 17.536806664157297
Cd 15.416640025626144 12.99536919507037 13.253862586630593
Cd 15.738421327146535 16.632181332775325 16.337307044744882
Cd 17.131093566569934 10.618956047365042 16.22820930503937
Cd 17.2797057253199 19.076433536720987 12.728375631910342
Cd 16.951909344066156 15.687356482292369 13.804893139017254
Cd 11.447202229177904 12.770982626779388 13.778065495161451
Cd 13.799419759048492 12.167485096096932 15.60062535195313
Cd 20.118967802061942 15.345470980697588 14.06079190705871
Cd 11.036995703574956 12.37820784090625 16.899268700292644
Cd 12.006115296863266 14.134581797195967 11.141664008304367
Cd 16.686587022106387 19.94743302146968 15.6064048959323
Cd 11.569366066010447 17.850663486474108 14.773141353456097
Cd 13.954266621922855 19.511691612554806 10.646424802847333
Cd 14.336077356881551 13.674646200612896 9.247599746072202
Cd 16.28473603634427 17.773071928624567 10.336041863139984
Cd 12.338941353523415 10.049346151762299 18.5685995579485
Cd 17.05879070644994 14.944385783270743 9.985482015522734
Cd 19.05876020662727 15.514163929967633 16.863256251518738
Cd 12.210610854479912 20.324530437336694 13.023049130049618
Cd 11.422785495744941 14.735880923072031 18.977033820640084
Cd 15.170625377115904 11.473523169469027 18.310840159993692
Cd 14.600453639709086 17.68037439830402 13.686572073714785
Cd 16.50390984838217 11.992269783611098 10.542955737531509
Cd 15.05663064372657 21.00268665204558 13.21658074088327
Cd 19.053450277491798 16.821376507101306 11.599042488752083
Cd 15.263289048970433 9.72928514556057 13.348358080586815
Cd 15.337884382534686 19.131505880970913 18.327253061185413
Cd 17.35675604828928 16.110802776179316 19.29221307704253
Cd 13.401234195644994 15.092437003775926 14.674693979460816
Cd 12.097551564924103 17.34186704942014 11.69708702360616
Cd 14.45540431908064 17.025352060724963 20.099445440678355
Cd 11.252283368103717 9.16404941695562 16.011908812443043
Cd 14.656384930102469 15.443845059385078 11.855713722547957
Cd 18.156068511708764 12.856016953609664 18.44762425195398
Cd 14.300041928855565 9.238415186186916 16.28628217568003
Cd 16.438280371462653 13.713501777887247 15.954293605922324
Cd 10.422501258663862 15.50757600780511 13.255380561978336
Cd 15.690934625743228 13.853091754876173 20.080375999146337
Cd 13.029179319552519 12.11660413664431 20.43525621747328
Cd 18.190671297082872 18.491780787689265 17.790696563311315
Cd 19.256429256805887 12.78744282863521 15.27209969323823
Cd 13.514479074539675 11.441155635378104 11.195620107322659
Cd 17.904486806238825 10.957494421899542 13.341485258983623
Cd 13.105658823017954 14.8656664198916 21.420838160186804
Cd 12.31086207714959 9.98014312244505 13.4714397748759
