52
Energy = -23.02515455 eV
Cd 7.750415626516112 12.020412305739187 8.67588874999142
Cd 10.838094083553287 13.1524475212413 10.146671348168105
Cd 13.271066728251874 15.26331301551312 9.730411751296412
Cd 12.745631685842127 7.69399442502796 10.320238095653561
Cd 7.090209054661709 11.680896415512404 14.96820918241381
Cd 8.121248212869277 9.55067842379558 6.7144104542208085
Cd 12.123342638262766 10.103089961564974 12.635585770615656
Cd 16.65803223244952 13.596332268972802 12.445094210050051
Cd 12.60761244574599 10.216047673777608 5.831420318327113
Cd 9.14674593302911 13.58231213947214 15.913538967622278
Cd 14.919700638656655 9.272908089200376 14.455054030109858
Cd 11.753770941521932 14.896152284472958 15.197703937743944
Cd 6.96062014471169 11.823214667722146 11.852192739731061
Cd 9.591350118091553 15.532538989531142 13.130093893464958
Cd 6.993258024535329 14.356353034827709 13.753971621526894
Cd 9.89125820443593 10.741153056976655 4.703599481055917
Cd 7.427168865427593 7.449776991263705 11.69255416002854
Cd 10.353228594186206 7.794895905730393 14.390114326249176
Cd 12.619349891169309 8.49332472764266 16.098943048814625
Cd 13.09344734242068 11.842945457874393 15.059293069079299
Cd 8.313985261147437 9.593757404353353 13.392738407504007
Cd 8.566793692063074 7.478732748156245 8.925167299441943
Cd 10.578666399018331 11.204613855855667 7.953154963118306
Cd 11.401780195367376 12.81438162531805 17.708787707698868
Cd 15.28771785293242 13.03835989718236 9.709764632491252
Cd 9.886224454626399 10.01211047766687 10.647483579184788
Cd 10.306212406443406 6.852392278543689 11.549268792838447
Cd 12.935940545316209 10.846868370492023 9.881612217030604
Cd 11.148605372479397 8.227315129952224 7.860382598703758
Cd 15.155149580280977 11.242084718185477 7.119410639454161
Cd 15.338878176697644 11.011659607249232 12.085116387632857
Cd 15.716586369753777 12.151265179060541 17.70833283032842
Cd 14.619185821622452 14.535949545038337 14.577098162846703
Cd 10.031842426123195 12.379948278821223 12.858034888888836
Cd 6.649031714285266 9.60648569827801 9.90802427613578
Cd 13.047142404348026 13.206168498993058 7.483538368508068
Cd 13.870074754317645 14.522795095199138 17.592804865515696
Cd 13.26744855583166 10.487465906740958 18.103248904020845
Cd 12.997177972698212 13.137760735793107 12.242782153340816
Cd 16.29758916031484 9.986809645606444 9.502423497794112
Cd 11.323561415507562 15.641167430681913 7.487665293706539
Cd 15.300636930269963 8.113846117721643 11.589119746736234
Cd 14.197529309909536 8.516089353143196 7.8870043639293295
Cd 8.533054069722684 14.77635507034531 7.98698987278441
Cd 10.311883583142828 16.246646578395328 10.272552863668233
Cd 10.173380440209435 13.455624083983984 5.7705869967578725
Cd 7.909949920249269 14.41148271932457 10.845149576470414
Cd 13.082643867648766 7.036616450098845 13.316427133178001
Cd 15.183813889022417 16.04402479970997 11.921029050056502
Cd 10.326654589785148 10.642208920154998 15.501321125037467
Cd 12.350366328519712 16.279357634090555 12.489330456055972
Cd 16.43787762291329 11.939805278912678 14.911595681884643
