5
Energy = -0.37706406 eV
Cd 16.676404128987052 12.522804713766622 10.39189718131054
Cd 13.959242039855717 12.746760723658292 12.342687445417821
Cd 11.722982698311629 13.384920552675291 14.699337081803513
Cd 9.139463858964579 11.926549787400731 13.192593601741061
Cd 9.482919405015721 10.300939683875079 10.224865102611766
