5
Energy = -0.36730265 eV
Cd 16.434251454923196 12.936700977288254 11.75343977938566
Cd 15.2436188349865 14.101037327213081 14.904643949053666
Cd 14.738534338508885 1.4749325031432021 1.4673012970774213
Cd 11.437766664004936 1.1079152410758348 1.180480318395789
Cd 13.13613125141334 17.551490229724756 3.415577309458838
