53
Energy = -23.43839833 eV
Cd 13.73046491638781 11.552887543670254 11.477828251727876
Cd 11.10534533304201 10.967667098493427 10.122111111554435
Cd 15.42566726045967 10.321713682243985 17.054591951438212
Cd 11.111355115784512 12.167574275465425 6.251236119533652
Cd 12.412002637971653 14.968673740047958 6.7718273533383915
Cd 12.980755755711597 13.262941573396084 13.996447718635883
Cd 11.88005796582223 14.820930011592408 17.024363290630777
Cd 13.665302378172218 16.046916878779687 9.5404765561655
Cd 16.704895427301334 8.104242655706962 15.58351773161071
Cd 15.746638465893783 13.155959955935536 16.51658872724457
Cd 11.839778317346767 16.54612387496778 14.541797524519874
Cd 6.553875514359183 14.08855986062354 12.59695057039149
Cd 8.718724509109355 15.172692334905406 10.87810458341433
Cd 10.122187081426238 8.415622329152015 11.441660945080264
Cd 11.211796563841254 17.069083909605673 11.738658831806859
Cd 11.22071404225929 7.7979276252252525 14.274823277213594
Cd 11.139542469098108 10.89142987975196 13.232975141716354
Cd 9.599852963136456 12.906166523506748 16.61572567953746
Cd 10.123235580281726 9.530087410492415 7.34170601691799
Cd 10.173264958908682 13.866925413070087 13.861296664904959
Cd 16.95992612440646 10.862350179417518 14.358415715869254
Cd 12.994486851493035 12.969343923930966 8.970873759162433
Cd 16.01597954433439 11.964366445056026 8.291977559769022
Cd 9.368117248645211 16.308633655731313 16.487738442721803
Cd 10.794446468366997 16.150247995116757 8.97855223273604
Cd 12.655918119018592 11.937390157346611 16.720113921503327
Cd 14.057985835806948 15.850446832551572 12.521155932204914
Cd 15.095755226793392 9.26433000010918 9.78476678937602
Cd 13.103616423905828 8.449937263080134 11.992762818197459
Cd 5.692890786614308 12.060721671006053 10.64768849628795
Cd 13.411044332954592 10.39531249809094 7.537790036023884
Cd 11.710038736089468 13.921093966428373 11.382338046967204
Cd 8.974584148025606 12.237015624183412 11.71957247914889
Cd 9.700804501348607 13.407695116270668 8.59989018736177
Cd 16.81033447872487 11.303375723021515 11.265367655924413
Cd 15.943140599460106 13.430597861879948 13.376843948529858
Cd 15.496848083504062 14.768234054746912 7.086303185896957
Cd 12.84674721387234 8.860697991727514 16.638476158661284
Cd 15.58999544135505 14.072044649596487 10.49067983258905
Cd 7.403300431277139 9.614446525157696 11.386506258851506
Cd 7.2790753357723625 14.540408480788809 15.406259979506322
Cd 8.384878480662035 8.789010591500878 14.00883612995942
Cd 16.16951102632412 8.525064070816759 12.566133407264687
Cd 10.161246116785467 10.114659258190706 16.008925490524483
Cd 15.852810105453127 6.655152138012412 8.309375349437127
Cd 8.73389712571829 16.567819485534816 13.530575862367694
Cd 7.97935282838262 11.003494865827257 8.79511106729119
Cd 13.967083800329124 10.471102837795833 14.201528964096411
Cd 14.523274404404411 15.591058663836025 15.647567597881853
Cd 7.672564918986832 11.634750864944838 14.446959400548163
Cd 14.066790709377553 12.640936013694423 5.58591339021048
Cd 14.166656382077282 7.08868431261573 14.567853107884476
Cd 12.224249912037338 8.16825870398094 9.09726774648326
