5
Energy = -0.51423576 eV
Cd 11.631894367837079 16.588858999225142 12.116892376136342
Cd 11.052771108724988 13.28773802049161 12.251700643666632
Cd 10.6123542807779 10.512646160668393 10.216545528338074
Cd 12.66071773101404 10.257041163677917 12.733288495061183
Cd 12.126656986717075 7.4381101310081545 10.76596743186885
