6
Energy = -1.01079616 eV
Cd 11.161186729826605 8.839262719226303 8.686696071864274
Cd 8.225193295718311 8.530462940708091 11.109798168289235
Cd 12.96120802433551 10.583113883684554 10.640186391780333
Cd 11.931889311241347 11.821751957695312 7.9085563634335685
Cd 9.937047369694323 11.29548262982118 10.32390576833843
Cd 7.896286896826677 11.41700217842259 12.784255802266717
