6
Energy = -1.0750737 eV
Cd 13.02212452461433 12.391879190145955 9.921312682563446
Cd 11.01318057183044 11.761467757676282 12.417139230854888
Cd 9.009595526685613 12.39599552155342 9.90503247574222
Cd 8.250307257971365 9.901811090163406 11.892125912540655
Cd 11.021655864846764 9.755552419754393 10.063158712766763
Cd 13.795515921625022 9.905998022177407 11.91361065310608
