6
Energy = -1.07705941 eV
Cd 9.198740166666651 9.963088000000075 10.850155833333393
Cd 10.963644166666631 12.006779999999983 8.850265833333284
Cd 6.351174166666679 9.314055000000064 9.203173833333219
Cd 8.369657166666707 6.882373999999979 9.981614833333333
Cd 12.179482166666574 9.112284999999979 9.706275833333414
Cd 9.422226166666622 9.206342000000054 7.8934378333333575
