6
Energy = -0.79363354 eV
Cd 10.644087130482028 7.924474534802231 9.098965835978309
Cd 8.98378449943463 8.949857509187364 11.59208096011135
Cd 11.887920822599675 10.098249943371837 11.043675071162486
Cd 9.489122432057465 10.872743413170015 9.127589201669611
Cd 12.306159657563487 13.730677244202562 14.485551159407075
Cd 13.357776828264875 15.167523928313903 11.407565007152277
