6
Energy = -1.07640438 eV
Cd 13.547188083224038 11.348905599018138 9.937749401288325
Cd 11.172288218565946 9.890040584338408 11.808452672286792
Cd 10.320485043129919 10.76203573839849 8.991390287960035
Cd 9.389961919570668 7.711119346852498 9.974520395331997
Cd 11.07719812023622 13.118848480209403 11.165730969347234
Cd 7.960346433360281 10.381745360505018 11.26616697336884
