6
Energy = -0.92704086 eV
Cd 13.876904680172698 13.269651960875537 12.702974814981301
Cd 11.58556635365216 15.457256237658216 12.611176676378976
Cd 11.478606951442726 13.16298750022156 14.777389005335516
Cd 12.42485592884761 6.993132062352146 9.782863634915103
Cd 10.99641801857587 12.480391011393207 11.73897266092244
Cd 10.824059150043498 9.950748998920844 9.838245294514019
