7
Energy = -1.14686328 eV
Cd 11.559494916240428 14.261972723589286 12.342763342544867
Cd 12.259841296027735 11.32463578840882 11.401181270563834
Cd 9.058863087477445 12.298159113675013 13.176541108321537
Cd 9.367501871406787 9.90440361316916 10.86109058915198
Cd 12.578340159459167 12.583771907458562 8.42848490508407
Cd 11.268358578582275 7.948921638137311 12.507281575750069
Cd 11.936207192032368 8.971829371828932 9.25528659641286
