7
Energy = -1.15000682 eV
Cd 7.3163775816311 13.008153038980497 12.56183565151682
Cd 9.235490112440633 10.936312901549229 10.901880452073867
Cd 8.889927953351497 10.480956308801614 14.021618493175135
Cd 12.139372027708939 11.788433780143906 11.822317459846738
Cd 14.131909789244224 10.030168753970795 10.121605536882178
Cd 14.090631805106048 13.158387431406874 9.672462655573415
Cd 15.3960857577282 11.979166877868638 12.293989799751134
