7
Energy = -1.39710318 eV
Cd 11.564793300125135 7.812621375645137 10.890957313634171
Cd 12.120859673382524 9.801881513402206 13.346341895522116
Cd 13.105775933077778 10.54929898499358 10.409875515578834
Cd 9.93574560385535 10.533821527142512 11.22159742801453
Cd 10.36846267874921 11.394732678891124 8.116745751873237
Cd 7.565932764484994 10.225485471670579 9.14706397884137
Cd 8.561138470056617 13.12375020155337 10.070062065288315
