8
Energy = -1.62477513 eV
Cd 12.835235539386176 10.820863546117893 10.18076302112728
Cd 12.708098971966407 13.519595877206747 8.509141343334319
Cd 11.14227900176507 9.602777515733887 12.608224187228837
Cd 12.674302559360957 10.729023020958497 7.00753748934609
Cd 10.159689879439055 11.634620267080214 8.722067810492037
Cd 8.613308412773012 7.708300786728659 12.869751771634077
Cd 8.613512159589131 10.544192266099298 14.273881085599399
Cd 8.475152842262466 10.346668126221955 11.115073409679205
