8
Energy = -1.64583093 eV
Cd 8.701256949791208 8.763113764998327 10.77409932446302
Cd 10.333724590697372 10.537529525502062 8.16111204293379
Cd 12.114160826066843 9.453407049723477 10.797491514041646
Cd 8.004814154538424 12.09105330841795 10.011280390573186
Cd 13.402653672850468 11.103049417739925 8.528930747346132
Cd 10.653052599054991 8.153516472274895 13.194975839042568
Cd 11.353776703724433 12.750900076990222 10.197210237975302
Cd 9.606310881589048 11.07920335060523 12.711436114981218
