8
Energy = -1.6150635 eV
Cd 14.820594870336306 11.826520659341048 12.107128071581954
Cd 14.355862211522483 9.377094647486755 10.152604665291216
Cd 12.463767309525693 11.911453313465113 9.965990360803355
Cd 12.292782082293758 9.962129179069864 12.461714999566539
Cd 9.309649935477571 12.9363165558811 9.891068330224938
Cd 9.458537125396703 9.805463038582452 10.109232600968086
Cd 9.319416931428215 11.538788222785561 12.715284846328442
Cd 6.589430578604679 11.430795804418468 10.88545379197073
