8
Energy = -1.74137816 eV
Cd 8.562985344745377 7.414862503261747 5.527895414761368
Cd 8.615463776161258 6.821981276227328 8.549762898429535
Cd 7.231286770013925 7.3234660651260555 11.297015487918408
Cd 10.42601238268687 6.867156231359708 11.087416431678411
Cd 9.012285587009826 10.061152835302053 7.037481243152195
Cd 7.794811788340833 12.08729417861374 9.06867078643966
Cd 9.119903522526279 9.568158388896475 10.295414379791728
Cd 10.98775056213983 11.606428654400418 8.886843357828699
