8
Energy = -1.73071811 eV
Cd 13.686013394834294 15.195089313837213 13.734140255870955
Cd 10.861344627099617 13.785286521666988 12.853067606302261
Cd -0.09665284134134741 13.710017342460315 13.298155110419462
Cd 13.673298447062287 12.134632259048896 13.216019731401044
Cd 11.74160191589098 13.08476722102487 15.802794509678337
Cd 15.176840109353487 13.022991486594092 16.049720727453096
Cd 13.343313551765897 10.7343137726064 0.556075300393165
Cd 13.273204958409154 13.673420541273153 1.8133313004612526
