8
Energy = -1.6146293 eV
Cd 13.16047782012579 11.458761805152639 15.313905783384696
Cd 15.205613872074746 11.845875385760845 12.914481376532157
Cd 12.53473445223101 13.516331137208438 12.988729060422685
Cd 12.421191701113786 10.41770755040521 12.35023399974353
Cd 11.045794962883033 9.988250229292682 9.417241469000352
Cd 10.715198699611875 12.970623627541435 10.32155914227769
Cd 8.976981190643803 11.828098230438158 7.79964270605224
Cd 8.404306137249929 10.904942413870309 10.829490064790127
