8
Energy = -1.74060432 eV
Cd 7.905066598897672 10.800359098090777 9.19953414943914
Cd 9.95689783519109 9.096188149303186 10.799874195026012
Cd 7.9092687803507316 10.800333251259225 12.406380043330177
Cd 9.955261881392357 12.506545205277737 10.79988185683575
Cd 12.54493616634544 10.800932351074943 9.273876954719736
Cd 12.79665927988504 7.947290411631615 10.799677045167977
Cd 12.543509111950874 10.800863433544677 12.327170575712353
Cd 12.79487340402933 13.654285491757339 10.799753903914686
