8
Energy = -1.64676336 eV
Cd 9.155844307332547 9.723242341738475 11.783513571211493
Cd 9.370603778808098 9.723938865134665 8.377601163371414
Cd 8.45627424939311 12.48584114781023 10.083230028570958
Cd 11.718652313090796 8.068378406729202 10.09327830348534
Cd 11.716932092152783 11.381264261197941 10.09405145449043
Cd 6.552584655526551 9.722160616787251 9.896315878987927
Cd 8.459431466668363 6.960518489441445 10.082776077419222
Cd 12.361141137027621 9.726119871160938 7.380697522463492
