9
Energy = -1.85589529 eV
Cd 9.840712488635067 11.181440474212321 11.129572396516252
Cd 9.679035607280367 7.953361285258091 11.613802061867407
Cd 9.29057829515027 9.996472472517558 14.120641931281039
Cd 12.959408110932946 11.544291194922971 9.892214311722546
Cd 12.171484619430744 9.817935403183181 12.605719234149923
Cd 11.99640773320646 13.130860679767707 12.666482739906147
Cd 15.110720031193045 13.403191523025612 11.89810851745194
Cd 13.521225939562392 15.85252644683257 13.32509794692959
Cd 13.019025631616495 15.023432692033616 10.23567946267585
