9
Energy = -1.93445655 eV
Cd 9.639923857512883 11.689833129710912 7.628503254262933
Cd 12.950667643955503 11.87050451993051 7.682902265021141
Cd 8.046393297929905 8.880117675240193 8.47007187350051
Cd 11.232788481179245 9.042974244609914 7.383596418206902
Cd 9.592338473057982 7.731014114892724 11.127834179355556
Cd 11.240642374954122 10.61478227076156 10.12933340014371
Cd 6.318674879956455 7.613242014892765 10.92610964251899
Cd 8.031993569050586 10.381774170532164 11.39616708265766
Cd 10.816344864895338 10.045525301921018 13.125249326824616
