9
Energy = -2.26509204 eV
Cd 11.15708630865267 11.074579357126076 8.379127473572133
Cd 11.377233836172984 10.631973240833467 11.449331700985741
Cd 6.539246903672362 9.490690891384743 10.09868553501487
Cd 10.59250254896712 8.363966347221337 6.939855045423974
Cd 8.163899550777627 10.241423952505754 7.539794532867205
Cd 11.462571588752887 7.938974271425069 9.904238429519982
Cd 8.452493637900039 7.294386952254709 8.95329507143988
Cd 9.000233256583524 8.661888517110707 11.832682363485455
Cd 8.69288448219684 11.740268583814482 10.341141961367097
