9
Energy = -2.12154879 eV
Cd 11.418184627125214 8.997478012935822 11.365382002785873
Cd 14.109258291188077 10.711588308259689 10.605575156274455
Cd 10.10093765189088 9.35259839302917 14.154077889017548
Cd 12.340580757870486 11.405516249881284 13.338018059794166
Cd 12.134201132027577 9.486107924515595 8.38290325883057
Cd 9.37163664053004 11.615966010618749 12.206488464123893
Cd 11.624973678818819 12.348004582675676 9.686281092283398
Cd 9.01556010074569 10.492761290532028 9.20478994593819
Cd 8.745242338054858 13.581954964714186 9.97282720816407
