9
Energy = -2.12292102 eV
Cd 13.67863605604148 12.52334557221738 10.888666917828434
Cd 11.580824173981057 12.11428897090837 13.45343692233407
Cd 9.663465470602208 9.867031773025515 12.269000731189987
Cd 8.473815521668248 12.627923464570246 12.876860716773685
Cd 12.112620703572835 12.014017515478528 8.027630268563772
Cd 10.430904032860125 12.692958972875152 10.505692027969575
Cd 12.461040621920654 9.74208136425545 10.233997537574632
Cd 10.614901439267427 7.369157912359281 10.831342759430973
Cd 9.496235336668594 9.693109750909427 9.005016347389697
