9
Energy = -2.12577756 eV
Cd 10.514969752777816 9.97563644864613 6.780031280527559
Cd 8.508180618362932 10.946972132311597 8.918642836272033
Cd 11.454632909219631 12.373362466701403 8.765411814955401
Cd 9.508636197270238 7.429417382428014 8.792887476345996
Cd 11.880541035395455 9.432615309775084 9.666880994123652
Cd 11.353744432595294 6.870237405749325 11.293310910492181
Cd 9.766424949244577 12.098515045871395 11.650308125488584
Cd 6.8216250662818085 10.889457017735104 11.49361376462102
Cd 9.166986004370127 8.959527756299815 11.614653762691962
