9
Energy = -1.50651414 eV
Cd 10.407169465878814 13.904449452027832 13.904449452027832
Cd 11.72229259528041 13.904449452027832 11.166256755686693
Cd 11.72229259528041 13.904449452027832 0.16899814836885357
Cd 14.682882350532186 13.904449452027832 10.491202866379073
Cd 14.682882350532186 13.904449452027832 0.8440520376763595
Cd 0.583076491649069 13.904449452027832 12.38398115263265
Cd 0.583076491649069 13.904449452027832 15.42491775142278
Cd 13.904542363723824 15.437784376396063 13.904449452027832
Cd 13.904542363723824 12.371114527659484 13.904449452027832
