9
Energy = -2.26874736 eV
Cd 8.761691000000049 8.365928777777894 6.672416111111058
Cd 11.682708999999873 8.33094977777775 7.767136111111053
Cd 10.188399999999984 11.053000777777847 8.06303411111119
Cd 8.360255999999985 8.008376777777798 11.780236111111213
Cd 9.542021000000068 6.608133777777744 9.254056111111122
Cd 7.107057999999943 10.833966777777853 7.619072111111154
Cd 8.162841000000034 10.8624257777779 10.54982211111109
Cd 10.96586000000002 9.284213777777657 10.643726111111143
Cd 6.714354000000048 8.138193777777815 9.135691111111104
