9
Energy = -2.26790801 eV
Cd 10.687866293226072 12.575472292133872 12.441447018742675
Cd 10.949985837302636 12.813226281007553 9.22159587869174
Cd 8.173555888701298 12.340704619073595 10.61732282632172
Cd 13.190177617594538 11.260142957397191 10.917128351550371
Cd 9.271677771798474 9.967265997565914 8.93255807752016
Cd 12.281479588947475 10.170722980997061 8.153932976362091
Cd 8.998953760124447 9.725392335713417 12.141087569599222
Cd 11.867282571047863 9.828392442098474 13.359814425347745
Cd 11.493472156409291 8.385966906912332 10.619317269000467
