11
Energy = -19.78024651 eV
Ag 8.545872791081429 10.159096553594038 6.76792620697618
Ag 10.037398023538763 7.872893269229665 6.944422478023088
Ag 7.287068266233894 7.621543485703697 7.2015760775228435
Ag 11.490061058780283 10.213857539658298 7.368105329911154
Ag 4.691684084548115 8.061867043857527 8.183904920230374
Ag 11.237457032106029 8.289080588187426 9.408272464332839
Ag 6.870198653249946 9.643129276013154 9.03032895541546
Ag 9.51390411899494 10.471891012406369 9.306158121975498
Ag 9.091155962698826 6.340848084096485 9.016706714749022
Ag 6.479470062774754 6.909936618540495 9.87042198301849
Ag 8.691117120514281 8.351243703233958 10.837563922366177
