16
Energy = -30.58301833 eV
Ag 14.194140908132407 11.34603438137534 10.988690834789352
Ag 10.675126029810588 13.229735733424883 10.558377719636294
Ag 13.292244858844548 13.509981267554311 9.45706622683693
Ag 12.028910693249095 11.0766605849358 9.19607330764531
Ag 9.714822781552538 8.524540244991623 11.774992695288335
Ag 12.349954252977415 9.29654706435518 11.499991165443229
Ag 11.011524506667664 8.437236792971206 9.263377259926552
Ag 12.179159193462613 15.50478362693252 11.004540436230615
Ag 9.810525971472144 10.313492541858905 7.508158562056271
Ag 8.237717949227351 8.600408168414964 9.169612622948344
Ag 9.370429511566353 10.88580019516447 10.152179192661203
Ag 10.594170544970435 11.255999689820609 12.618091130750239
Ag 11.234314272904138 8.902273046783037 14.104807639240668
Ag 12.704140600099214 13.226359032894424 12.418033547019823
Ag 7.264319844541379 9.723885320895532 11.510672805347696
Ag 13.175909231681116 10.857157931807855 13.695987024551945
