55
Energy = -120.24090657 eV
Ag 13.187072067070126 16.778598964653433 10.094911818217167
Ag 15.576844664920172 15.25230074712971 10.508793560113325
Ag 18.11301195430944 18.878966182020875 11.939903888625699
Ag 15.596863095212274 18.080982857185585 10.991166182972208
Ag 18.1430793483986 16.511045010630163 10.532285233666357
Ag 15.802208672500925 10.952311362699392 12.700365354235943
Ag 13.336691434430357 12.142160281126388 13.36344330987995
Ag 12.944674686362696 14.209664653396102 11.370300708446566
Ag 11.26346307579699 16.55110856217067 12.195887146569651
Ag 16.85442351747688 16.50596330837149 13.034788635329438
Ag 18.14330974618732 14.089294972728105 11.898815693855541
Ag 18.34184057160605 18.61993215520836 14.649117457008204
Ag 18.22973521626066 11.7230099608387 14.022836469619925
Ag 14.069979528878902 16.35455046889765 12.720373410205884
Ag 15.357112100348319 18.34022191515486 14.493334517670597
Ag 20.229961167402823 13.71518381270389 13.724468502488058
Ag 12.150683972344387 14.696162084063364 14.112775192686755
Ag 19.68834666489015 16.53613360235199 12.959330577320555
Ag 15.49106951861627 13.770990491604405 12.854599826128812
Ag 13.031517632324027 18.898047054628318 11.966611274864256
Ag 15.591558777077768 12.145550347168408 15.209630563703591
Ag 12.414700787782554 17.84025664131396 14.496839053221356
Ag 16.65517899566985 19.12213592116811 17.015239098507294
Ag 17.22612416325425 16.571157998977938 16.09090387605597
Ag 16.744901564033256 9.592007452709389 15.013371901823849
Ag 13.460939368468111 20.39188561826149 14.332133844912033
Ag 10.830634140940054 12.225225193246946 14.445711556052457
Ag 10.084503299666613 16.34384286420241 15.015654286561512
Ag 17.640580080416097 14.318029495529542 14.652720331846519
Ag 12.479134243461074 16.148204970839757 16.669992723854605
Ag 14.839630463860866 15.300768795260879 15.235630331184804
Ag 20.014141846090645 15.743029080188164 15.614157182017664
Ag 13.729477329090216 18.931952106141107 16.769477755630113
Ag 21.0723577289368 18.154218145396886 15.024396609660153
Ag 17.479867009784925 17.589221658385732 19.35533719799663
Ag 19.34630578908961 13.161986014350006 16.514160878021684
Ag 13.12454478460891 12.992248427783672 16.11516914969944
Ag 16.449350948933255 14.009003127967423 17.248755124971165
Ag 14.756678744802363 11.839583646222167 18.05838838742373
Ag 8.874275567784498 15.864410015747364 17.535575042270544
Ag 10.551041234917745 13.974329893736943 16.529675158727088
Ag 15.134505688296821 16.73763901570786 17.88422011811407
Ag 12.750776937477642 17.51671844277924 19.108796435165857
Ag 17.410047358189452 11.250528744664754 17.132484887809227
Ag 21.560706244958194 16.610646650355896 17.741460347763425
Ag 11.179471066528071 15.260195868720203 19.04395562277176
Ag 19.350293165534893 18.176918397858678 17.27728675175007
Ag 15.061701784176782 19.12315250615477 19.332135513245287
Ag 18.298454562448427 12.981221555096818 19.205658803536892
Ag 13.84250888595451 14.43301565155871 18.58649690862598
Ag 11.87536329234556 12.438632625224013 18.579817185618904
Ag 16.34071702669663 15.028205336624108 19.825879328461227
Ag 9.191288798413801 13.371330829663146 18.87775482696246
Ag 19.01795479019318 15.460564641127208 18.203618842474786
Ag 18.832145291638273 15.509304269161555 20.88715601051239
