32
Energy = -98.84092344 eV
Al 9.726311639052797 8.789969561003682 12.888190636717091
Al 11.164053387089174 11.164030601436965 8.131936596714082
Al 11.163991116567702 9.555878335040443 10.574911439062035
Al 9.709699128182207 7.178175232316577 10.301406393842123
Al 6.951454214946131 11.164121270138258 9.732312941268853
Al 8.9695871094386 12.67023119178419 8.882463295368904
Al 6.782985879014979 11.164041020290982 12.517368102360138
Al 9.1051473706738 11.164118866434675 11.298619300924583
Al 11.16411554565786 13.925918694096362 7.996692058861432
Al 7.631966466757547 13.53461379513689 11.211751782412222
Al 7.6319377700567665 8.79362561850431 11.211710705363894
Al 9.70977445378776 15.149984651517563 10.301445333372198
Al 9.72646220376769 13.538132344914795 12.888215514355553
Al 8.864345244664882 11.164105222545565 14.198412616586872
Al 8.969527393128145 9.657965412962977 8.882430553274284
Al 13.222955221281753 11.164040514647656 11.298677043344
Al 14.696119798347693 8.793513106381685 11.211785295301318
Al 15.37666935331929 11.163971930345689 9.73231848079955
Al 12.618285523211322 7.1781137542995825 10.301406127104759
Al 14.696204734771765 13.53453736965845 11.211752789034835
Al 13.35859042248951 12.670179955590221 8.882466420187896
Al 11.164022715032758 8.402185654444356 7.996631751874854
Al 13.358530450614682 9.657836877583357 8.882456805909522
Al 11.164065281605271 12.772298684288929 10.574868005556329
Al 12.618403286057974 15.149977690920341 10.30145029481533
Al 11.164047083724366 11.164008191446927 12.878375307447438
Al 11.164053186895002 12.683953908230185 15.233685191743975
Al 12.601752748642044 13.538084385276 12.88819719638639
Al 15.545140428060424 11.164004241882227 12.517352008512248
Al 12.60167086044488 8.78988945883315 12.88815782387277
Al 11.163990669791195 9.644098366286492 15.233665370681033
Al 13.463723364392246 11.163978066027259 14.198470791210518
