19
Energy = -37.50388091 eV
Ag 12.20548788636322 11.039352918983699 12.802879469986967
Ag 14.699156073438749 10.943378072115912 11.709893273757366
Ag 12.948765227678338 13.219932050407758 11.287340108344498
Ag 9.639801305504273 10.026195515081554 12.78130207464242
Ag 11.865879804311433 8.323772847351366 12.937555496116188
Ag 10.26731272502757 12.825403526743614 11.92544495938527
Ag 12.84019310424012 9.222096375728862 10.480403387794519
Ag 13.667483833822601 11.548331106543785 9.193992944218783
Ag 7.635844537709329 11.862397093468811 11.94173242777248
Ag 6.992750524252869 9.758405832457404 13.571351570942658
Ag 11.521219551763238 10.277719937146575 8.051639323610399
Ag 11.212614782346831 12.929610033037719 9.106297685076633
Ag 9.441944302822376 10.865906008476914 10.030783046421398
Ag 10.24536486031428 8.092574967638829 10.720452349246255
Ag 7.655236026942184 8.975421220467238 10.967541135075335
Ag 8.492879516923063 13.443544816491677 9.742122781858571
Ag 9.214862968523038 11.685059832639226 7.433643016401609
Ag 11.734016712661395 7.587748355961431 8.456220594044582
Ag 9.131088227585206 8.81038740694186 8.244829093858058
