26
Energy = -52.48290846 eV
Ag 13.079925050959343 6.040937625477162 12.905909510417098
Ag 7.819016784684294 11.88445125237045 9.152710755792016
Ag 10.806953686413838 11.974065391556351 7.647950979629132
Ag 7.036711836840876 9.334384277508944 9.966677994058527
Ag 14.391738791598756 9.304980581244246 9.524804466630897
Ag 9.234818120938648 14.149818361875266 8.313283832353903
Ag 10.549797412306654 9.916849192221136 12.299866807930677
Ag 13.417768468613337 11.80589864663771 8.786367569730311
Ag 7.541958411804728 7.4429611486594895 8.121443629390413
Ag 9.60236234570239 8.058447244268573 10.140046068369227
Ag 8.065518247481272 8.350982915146465 12.408854415574261
Ag 12.288563357234565 11.311976779690005 14.186821553826572
Ag 8.249172513063339 12.081957323036123 6.478978579138681
Ag 6.509672367469189 9.975451705993242 7.226135121031149
Ag 9.339361643970111 13.366712407398284 11.043954057078798
Ag 11.693741661884605 13.770459184604158 9.608636916863047
Ag 13.176371527160391 10.782093458325233 11.582652290908666
Ag 12.795691761726667 8.68615955346503 13.640188689403528
Ag 11.825220761639807 13.305978934561635 12.366578631224028
Ag 10.528016032248177 7.121233919939814 12.759362833823827
Ag 9.176012348608044 9.700198074971974 7.868346402888044
Ag 12.460653569768981 7.966150780430575 10.992123587634984
Ag 11.518405762077547 9.900656330907745 9.333423702479148
Ag 9.649512534347373 12.309849801563978 13.690647026511462
Ag 8.0148902258988 11.077282848180205 11.828194047787608
Ag 14.171477505203836 13.323394989611177 11.069373259169353
