8
Energy = -13.95066057 eV
Ag 6.959422789780676 7.748662670422229 5.238314861350751
Ag 8.74521203394024 9.559065107691897 6.419082326773054
Ag 8.454969477162749 6.90285508914437 7.2888073217826035
Ag 5.67428017468755 7.27723798807474 7.681789175260454
Ag 6.911713176902971 9.630535936757001 8.512706366572385
Ag 9.531068914758867 8.903513930194359 8.975964640716237
Ag 7.322848113039253 7.259051492191106 9.861345673468593
Ag 9.863724430356093 6.1823168961529715 9.485228744704587
