24
Energy = -73.16976201 eV
Al 11.228796976390036 13.180707870063832 7.861129720838242
Al 13.706822902558 13.061213497766841 8.762460686016839
Al 11.174836679207306 8.484130521935434 8.19995263875397
Al 12.485328840866462 10.730837750059612 8.396224505336194
Al 9.84770093163301 10.868838329219857 7.5740479813661485
Al 10.548467090546124 10.099140787330036 10.175872516166509
Al 9.28999365050463 12.789459862778955 9.661121813933736
Al 11.889391898663513 12.73549258335351 10.640872703884241
Al 14.30520355179188 11.151547242876061 10.488736793846922
Al 9.671217780163309 6.170304267081722 8.167745159564321
Al 13.01270816043813 8.783188035413207 10.287325755411064
Al 8.446904153596392 8.52922829306399 7.715003767730017
Al 11.356233525664729 6.613918376350776 10.224036079999134
Al 7.356807955657625 12.11241335754841 11.469175864722713
Al 12.491980367257439 10.670215231220629 12.389344067576529
Al 7.854434893614721 10.294083004097784 9.583267841122296
Al 8.975850392794602 7.8533629336135355 10.265627186867913
Al 10.921470309452566 8.277824221824455 12.228566872803032
Al 10.000438049597056 11.666454905227784 12.014239132701066
Al 9.25370762718821 14.216300985923535 12.1953399050218
Al 11.414832699690505 12.907506323304963 13.891745622630497
Al 8.367479145704216 11.752234983886828 13.98724753060533
Al 10.517595721493688 10.082305375201997 14.176761423419173
Al 8.440449250762649 9.52794381609274 12.202806984918942
