24
Energy = -73.31632559 eV
Al 6.679614655816246 7.281657070511249 8.09672714198279
Al 7.217364070699454 10.018508083160722 8.181017678622228
Al 8.477076802079626 12.497954147333122 8.665852363052553
Al 7.093422021137527 11.126479469654237 10.850776669050658
Al 9.307649679797203 8.12717540397628 7.931985287676724
Al 7.484818949833948 8.426005857217428 10.481128243498539
Al 7.919386627634015 11.889289068925661 13.3965670597236
Al 8.861037548764884 9.57268066256333 12.431774674499168
Al 9.737148252716489 10.52188494339706 7.028408903946738
Al 9.41501741306388 10.202591602833039 9.742681553824172
Al 8.70209724096516 6.163696706134903 9.578931125032554
Al 9.475775990684163 12.433021928404177 11.256670301667024
Al 12.076298344338069 12.992980340631636 12.03147544041959
Al 10.214947351725693 7.908562141616889 11.03267240278422
Al 10.526102893282303 13.112176093030595 6.9860184086598816
Al 10.59864293028551 11.31402813574648 13.594931499919275
Al 11.355221236602667 12.342034589932364 9.442784377268435
Al 11.37022329088276 6.442121582042199 9.140438922021936
Al 11.615210700445125 9.080414162505939 8.552533368810709
Al 11.515988380013987 8.741077824228677 13.24066314435202
Al 11.572283322611556 10.387033986394757 11.175476575401563
Al 12.443276324485641 11.30845081822129 7.212896729004017
Al 12.997298549906652 8.031164389793949 10.840239323504717
Al 13.710280963668758 10.445194533185184 9.473532346718642
