24
Energy = -73.16093054 eV
Al 14.008319189180801 7.842295844320908 10.699054028929284
Al 11.6405470997496 6.081979269683057 9.975614438136446
Al 14.285814048525976 10.175252883866927 9.312585583696787
Al 12.992028692979588 10.074055090041663 11.823759955114026
Al 11.931626345166109 8.7309429558335 9.380726568481704
Al 11.765570592197994 7.687318008986407 12.19143656769126
Al 13.08141953769446 12.384090760627773 10.318416881889817
Al 12.029270041904397 11.032319537782154 8.030324305827984
Al 9.571302038506541 8.163410440015822 10.68300891365957
Al 10.5471089692828 9.790000554729907 13.15129289049035
Al 11.755970644316992 12.140895908651629 12.713036153647387
Al 10.615252810870864 10.814872684140502 10.573916482337966
Al 10.58497308161694 13.219567228465417 9.06237258726079
Al 9.730489154326705 9.498973746432684 8.300299744922967
Al 11.14962152836976 11.82109201228905 15.342717990880287
Al 11.591917815553394 14.414725468698878 11.288116696408563
Al 7.455444264319222 10.36763157633751 7.1581308966937796
Al 9.621182033672353 11.872049411548762 6.981988646690733
Al 8.898517006598912 11.808438805053184 13.791320023675206
Al 8.1018456383101 10.441017489427978 11.684816095468747
Al 7.275092829876886 9.108985233357657 9.53372951371698
Al 10.315806140412452 14.144542915147309 13.619582566494241
Al 9.162010783794354 12.990270823056319 11.396160368586786
Al 8.235561723451305 11.741963362183212 9.334284109976549
