17
Energy = -33.34865025 eV
Ag 11.17320475402863 7.152410342242776 9.493197416831196
Ag 9.36677639978427 12.112736493446373 12.94039843771463
Ag 11.92526350886905 8.994307113580565 11.504705033451149
Ag 10.8396657388496 8.956767339060177 7.371985945456841
Ag 9.558410614457891 7.505834031540652 11.720064749767552
Ag 13.154756460663977 9.042430756792461 8.946520183543704
Ag 10.089656770581758 9.47796463328655 13.606262207456586
Ag 13.436179375842475 11.198435738264592 10.655364288535722
Ag 8.774490461950801 8.497184146933883 9.217141911727056
Ag 11.774168075797139 11.386432315665369 8.395934843026568
Ag 9.024512795450809 10.966100894989392 7.908722577146789
Ag 12.061351896660481 11.376787894448826 13.04723910120332
Ag 8.127730179847294 9.91871685414916 11.711468687912431
Ag 11.117104426961294 12.778330320397233 10.862162223852803
Ag 8.36974914740849 12.377522644851911 10.376893582370373
Ag 6.738249902171075 10.355742214570688 9.373836327263543
Ag 10.00493413312452 13.511637169540618 8.439031271029453
