20
Energy = -40.81122851 eV
Ag 10.692832626103016 7.890306415708092 11.569099105322076
Ag 10.246615911521777 10.24252072002003 9.717182036944147
Ag 10.255140678681144 11.866283094462757 7.208713826184625
Ag 10.23861808432367 13.044781422349748 9.789696986751622
Ag 12.587186966855509 11.575786158865894 8.838296066730459
Ag 14.510087771904638 10.733789854786076 10.75777287701857
Ag 7.9225326829150555 11.609634654201805 8.838477333755128
Ag 7.699499939758623 13.69953858049227 10.756458591963268
Ag 11.652661178895778 9.433049972406579 7.210063678895158
Ag 12.065402282628153 11.805291345685262 11.570803879642629
Ag 12.6780199571359 8.853515086084213 9.788637157340686
Ag 12.87612573633632 9.306500903865665 12.56426603786972
Ag 8.526878999817114 6.317255957237073 10.757501226131232
Ag 8.129232121572649 8.436180481078758 12.563220574374723
Ag 7.825191687925036 8.83887065381671 9.789456270212249
Ag 7.9823448082566655 11.044042841041135 11.570547779133312
Ag 8.831474548588687 9.448030155389427 7.210589639684363
Ag 9.737686392521107 12.994149083837266 12.564484149262341
Ag 10.229317574623336 7.546590057948833 8.836060035407087
Ag 10.247720049635804 10.24845256072226 13.033242747377757
