7
Energy = -11.21378605 eV
Ag 11.19732960350212 9.258590979912162 8.878337412649378
Ag 12.396820097809261 11.67934248809189 8.990291055961974
Ag 9.853687284550825 6.897020951183194 8.813798759653537
Ag 7.287916428831424 11.271166770246666 10.634218155776752
Ag 9.850719564387534 11.463568787725574 9.85610595876084
Ag 8.4658769558621 9.06167759512547 9.691012257355654
Ag 7.226321315244667 6.639262341690998 9.406956995200352
