15
Energy = -27.86216043 eV
Tl 8.271598967242053 10.619317532021716 7.686763959666012
Tl 11.350078739916441 9.34088142193587 7.078466688043703
Tl 10.158063058848718 12.953661963855001 8.51911543154227
Tl 13.021208144757965 11.71799379431996 8.194141652170366
Tl 7.856886033675186 7.702738064894852 8.65585438559754
Tl 10.792801306766323 6.512861294654291 8.256832586074571
Tl 6.959534785153876 13.618464161738025 9.328748386992377
Tl 10.550832634305392 9.702928709701977 10.06775798777286
Tl 11.51365031985398 6.760148436383253 11.193853686990845
Tl 7.254739816337926 10.797860694444735 10.715639381812114
Tl 12.83875520156851 11.44346392731234 11.280082436900052
Tl 8.457976502555303 7.973522812730653 11.754621773344187
Tl 9.69800084813684 12.649456685710462 11.586930178142284
Tl 12.543973071339991 8.906532592288109 13.069138775894203
Tl 9.683912863644995 10.252180202112255 13.564064983160664
