13
Energy = -23.39091303 eV
Tl 12.306583160470016 9.154003306524398 8.276708324206147
Tl 10.080025934354346 10.784976133419324 9.622066242025927
Tl 12.66117302275195 9.046609365439828 11.444273558388986
Tl 12.043023547302115 12.08436045718842 12.086940162306881
Tl 10.218264285723219 9.918205826361461 6.079126472068852
Tl 12.369443139704831 6.091990286675944 9.953059013504443
Tl 9.612231860500566 7.332534257989004 9.043740214249933
Tl 6.852742428910966 12.706346374370243 10.524629699281784
Tl 8.155421893856845 12.192425156964783 7.751885495449555
Tl 7.475634407054343 9.03191078744017 7.585591675335409
Tl 9.01450335254712 11.490186447041546 12.525693219280601
Tl 9.700910396523804 8.24445966526801 12.012942111815697
Tl 7.011859442396523 9.423808807413101 10.595160684182007
