11
Energy = -19.42865943 eV
Tl 12.330354372419894 11.47915355494607 9.89753249540758
Tl 9.44717995847813 12.244189559025719 10.373525866580232
Tl 9.295819417231495 8.767422880979955 11.158417993304324
Tl 11.028890630806524 9.894519502232635 7.558423248605128
Tl 13.00813715165235 12.526758541045133 12.843948055817197
Tl 9.446901975653486 13.54393590652734 13.337060908414541
Tl 12.064721538130172 8.160048710894234 10.141138186735812
Tl 10.598982769967614 10.576423108834058 13.194351084745422
Tl 8.129703654144016 10.05103260860956 8.587142181241516
Tl 11.452540932609082 14.726560851276304 11.12002459052692
Tl 13.54274524516255 9.237916803876871 12.644065386817633
