13
Energy = -23.43374047 eV
Tl 13.084198659197286 8.673770106337912 8.798698422771803
Tl 11.364784797803388 12.703837618271907 9.79792405636064
Tl 10.001167449470525 10.138741771632565 8.08417744778014
Tl 10.527122039517579 6.797200630905946 8.084038950307155
Tl 12.373076577857134 10.117643659325095 11.382751296709408
Tl 12.690608759951292 11.455575554324149 7.142499335049911
Tl 8.493884543069022 8.837401546609934 13.833919971766234
Tl 7.006400284693133 10.780394202459153 7.444355870176652
Tl 9.940646184527552 8.42150901878642 10.774127423934356
Tl 8.242706399850341 11.759968509841599 10.33917092800354
Tl 9.888901548874745 11.507446772895864 12.926842424733817
Tl 7.459286893313524 7.745953513471078 8.282816230002418
Tl 6.886277665638832 9.019618898902845 11.06773944616827
