14
Energy = -25.70350147 eV
Tl 14.094290904356727 13.549949893872974 12.195904724805231
Tl 11.459621577766914 15.256753087454435 12.742400276072047
Tl 11.73345239499491 12.781875805164354 14.777444888802446
Tl 16.098296695948502 10.893044255923215 10.901641793228759
Tl 10.868291364529082 11.981073489373482 11.910975706370504
Tl 12.876183518847391 12.779224883037065 9.448531186454785
Tl 13.414170717937187 10.356106505829139 12.80119171055746
Tl 10.019165436305443 14.391394219341622 10.172231409202366
Tl 11.053851193375131 9.768566028296748 15.036426925932693
Tl 10.083910774677346 10.734001653076856 8.818418523543071
Tl 10.909459253185279 8.756430858161188 11.214050767120016
Tl 13.435525457248833 9.826014060338439 9.58290226006902
Tl 8.650889065106503 10.071730115883778 12.965161269267071
Tl 7.725283411177143 12.05551233715148 10.674792336642993
