10
Energy = -17.5512993 eV
Tl 6.4714983355253715 10.039601343358507 10.293635275748436
Tl 8.887953121386424 8.412823641180916 10.733448097256897
Tl 7.867825159677064 11.832216847185604 8.12411441414753
Tl 6.547911884501223 8.453273083267858 7.515658724662887
Tl 11.888641088718005 7.440485470527909 11.097261869742738
Tl 9.116593662805633 6.897725997745011 8.022378613589456
Tl 10.19642005002671 10.037567546362668 8.063594249865444
Tl 9.12015348932418 12.500773682572426 10.984849867767252
Tl 12.201423136138846 7.578062724185918 8.059649103749512
Tl 11.448337435673304 10.554227027389686 10.852167147246215
