12
Energy = -21.4146484 eV
Tl 13.413617368348866 13.36234248749618 11.976128578289599
Tl 10.364838974079998 13.880506696203536 12.251137460371822
Tl 15.099136389308807 10.887482859679439 10.792655966945247
Tl 11.824643305089861 10.353358583368664 12.232196999779337
Tl 11.852905220383352 12.059018226975223 9.580050090176586
Tl 9.715294931640626 11.542805352298284 14.184492317918236
Tl 9.103260077670315 14.07816930265892 9.277097006503604
Tl 13.005334138522448 9.333657964715227 8.923321540337295
Tl 8.957614835504947 8.54602895691448 13.383278866359097
Tl 9.804708030251929 9.343210440526471 8.451429057030985
Tl 8.977523653173185 11.201906307967345 10.721332931544662
Tl 10.948180033886324 7.7643481939725945 11.083666692997753
