10
Energy = -17.48568718 eV
Tl 13.159139154472383 10.361872480273066 10.96014852458713
Tl 11.289308581084375 9.435493740987878 8.570027114750346
Tl 10.964189228795423 8.464670770661595 12.06286108164902
Tl 11.059023821295206 12.577339327014418 10.370056263145452
Tl 11.584951421403286 11.532083034296642 13.650998413887299
Tl 9.108924355275814 7.552392259609741 9.737470596561213
Tl 8.878779907467953 10.721781265993856 11.586550995739048
Tl 9.186296671511508 11.671111651191158 8.076692742935569
Tl 8.54399109334767 8.675245098745835 6.507745715108889
Tl 7.00322990870955 9.785844514589124 9.255282694999204
