13
Energy = -23.44781921 eV
Tl 12.503068546833811 10.322906798868848 12.955237242993881
Tl 10.257998971238095 13.48486791714046 9.031449011903213
Tl 7.0722387108071585 12.362823925990734 9.537740565901379
Tl 12.832081581910408 11.790400587229742 10.217759342325431
Tl 11.585497806537656 9.36450820382607 8.873551361802342
Tl 10.845843711905658 11.623224996413002 6.619975168773655
Tl 9.869520317159607 8.472464374363101 12.051103573622251
Tl 7.508095987009808 7.796415381659771 9.896734393536871
Tl 6.731407720780368 10.160215687739699 11.871377938140038
Tl 12.825157568419135 7.495517191701303 11.0539022722224
Tl 9.744625316173039 11.342189044475585 11.240492202197922
Tl 8.583414533971954 9.978255119189624 8.130234419539343
Tl 10.230172126462726 6.395333670611052 9.109565406250265
