15
Energy = -28.0087388 eV
Tl 8.716998054048917 9.818061166189942 6.634650934626116
Tl 11.832159684738821 8.612606549276235 7.748540920162676
Tl 9.367185977732225 12.754839052337536 8.40525332784436
Tl 12.077575656759507 11.642926793825275 7.480932285042581
Tl 7.314481870806912 8.516080116135173 9.567758342320221
Tl 9.684396248192513 6.7329714820236015 8.820459176223233
Tl 6.816771553898853 11.539944319280373 9.610873077610407
Tl 10.104387223966647 10.104931975627176 10.104211204653478
Tl 13.213303954385326 11.954463447359528 10.418426293437568
Tl 13.023557529523323 8.911171240293273 10.811430243181041
Tl 10.563613776112675 13.050119692701768 11.469099527605206
Tl 10.838677248074115 6.968631673293562 11.758732221307483
Tl 7.998174016023344 11.79645896074718 12.537423758034627
Tl 8.523670085174015 8.780956285955659 12.624076766308313
Tl 11.492187542806066 10.382977667196544 13.57527234388538
