13
Energy = -23.63456779 eV
Tl 12.271047381523527 13.11328564080541 8.487547454896134
Tl 11.374732549201944 13.40555998031524 11.615661370954625
Tl 10.06517266711551 10.71874973043917 10.684460710913605
Tl 13.44271633053187 10.893168814423358 11.655867465549699
Tl 9.978517332482369 11.43811298390901 13.788958459610855
Tl 8.545612805355828 7.8557637263966535 8.989419479992383
Tl 7.006001610298292 10.57678449864541 9.847995194732137
Tl 11.818755522727106 8.82626749153831 13.246304348515748
Tl 11.22359864981458 7.7245752686561024 10.455370808552706
Tl 9.033025386285928 12.75150321537802 8.5072951523154
Tl 12.760499062661351 9.979629156440492 8.778510335444578
Tl 8.261801586206008 8.636288767968965 12.514859764561777
Tl 10.058544813967103 9.920336423256158 7.267775152131617
