9
Energy = -15.34624569 eV
Tl 12.853887702147116 10.155497428509557 7.445529390795865
Tl 10.381491779619582 7.97690022153794 8.838979308894052
Tl 12.141115858149691 12.759932299432808 10.145684437618513
Tl 12.152771492515704 9.669482855626754 10.90915710067681
Tl 9.817666172848014 11.118979075965713 8.794440725566167
Tl 10.238267506098957 13.066199513568835 12.427383511840969
Tl 8.332943615393692 7.891611158626892 11.00075499928351
Tl 10.1173989307895 9.82492058846326 12.967550287201584
Tl 7.964561767585651 11.165276871579032 11.03576851202224
