9
Energy = -15.45922466 eV
Tl 12.373172775429031 11.048404127443646 13.921757845560734
Tl 13.370876886180525 12.665819578589867 11.414213305907666
Tl 9.364459710304281 9.849540267237664 14.077305975758186
Tl 10.126202826438893 12.744232735225145 12.312739295537542
Tl 12.118174393529658 8.75312157889784 11.968897463944025
Tl 11.18700394634914 14.360155737144598 9.817874566785758
Tl 13.116682643362532 10.360166953556739 9.486905216803983
Tl 9.82184532159048 10.471835010627007 10.437698804441473
Tl 11.131203930806295 12.04130224249104 7.83662020466918
