10
Energy = -6.75439275 eV
K 13.196575110071363 11.114452594978324 14.81359139739652
K 17.52707283999819 11.39387828973111 13.579958742863889
K 15.719713966687241 14.550990187727583 16.30613410756665
K 14.871594971199517 7.662158310270539 12.50319589780833
K 11.224969982010611 14.703478229865809 16.527962722663094
K 11.658110287435559 14.835188689951393 12.052191078925432
K 16.086045557563683 15.362247422121449 11.978244611960843
K 13.542996200195818 18.124907625237437 14.531581574123978
K 14.231971037940001 11.548046692894356 10.431348769755624
K 8.885686621139042 17.649388531463625 14.22052767117713
