10
Energy = -6.76148904 eV
K 16.551419143393627 11.77005330689789 15.657815082858185
K 15.46795779756713 10.9893853776986 11.600808060738562
K 14.295353601896933 14.38581129673461 -0.05622868609700102
K -0.012496536796593197 14.362823236587412 12.528946528333353
K 12.129557131801942 11.901621820390808 15.035491242064031
K 15.434340506884539 15.00741854913559 9.39613610870136
K 14.199535046140394 15.635739907606323 13.806151015571022
K 11.751718898289878 12.852746853322847 10.66760679574209
K 10.328035815135225 15.826921776139374 17.500313397583955
K 9.610704381043613 15.643959764004943 13.287446875894792
