10
Energy = -6.7836687 eV
K 14.32539865667663 12.448577618290402 10.087167223248864
K 12.347076382153862 15.75802261072339 7.925249424280152
K 13.321343055809296 16.442623420812424 12.254036720467306
K 11.212930272433178 9.463798716092297 11.189310854348856
K 16.66986674053901 14.040820751884787 13.56860974817818
K 9.91190569258637 13.738718222603751 11.038334741556643
K 15.09806934939148 9.695148136863867 13.387558548308727
K 12.259134403174363 12.901962459572704 14.761303234662611
K 11.258057033225002 8.531916756127577 15.592323889071617
K 7.942581132075608 10.85334333418722 13.994445714185016
