10
Energy = -6.88799942 eV
K -0.08117011721734946 14.691237978880393 10.78318364152189
K 0.5976730286894734 13.934588499624073 15.038726574535053
K 14.611173566835935 16.195374334529937 13.715988840419906
K 13.62240582279905 14.25347542407588 9.82426536067609
K 10.761449905123312 14.965725170914633 16.115906793736848
K 14.783689056001151 13.584364523175608 17.31407046929435
K 10.268821731851817 16.526147136645886 12.084754815564011
K 11.692486632674136 10.54651680442076 16.23396028041593
K 10.595490129801304 12.106117371460458 12.407373663184512
K 15.070408552728527 11.679905268046426 13.207782911436942
