10
Energy = -6.74623941 eV
K 17.866886437737936 0.23172967530322494 12.86517150728453
K 12.207696440084778 13.676385775374142 13.082941145784636
K 12.943403083463801 16.819923010942237 16.55740631929738
K 15.145480394890399 10.271123492633368 12.574465264552927
K 10.87365670744299 12.89269884571529 17.315965405282782
K 15.249292803231294 12.665796796812893 16.45371859156773
K 14.100314113504831 17.92078170129448 12.372692766769468
K 17.373052035213906 16.837315511463963 16.023007131161606
K 12.01342987307189 9.439108223758055 15.143410828024551
K 16.87444284614798 14.588863891406938 12.285894821733239
