10
Energy = -6.72321013 eV
K 15.832413310605418 12.079081242460024 12.778277941939727
K 13.05810066064981 11.876182889216285 16.18686633477689
K 12.260527436062821 9.006395176264062 12.6926451548386
K 15.192794442345315 9.750623157966327 9.27014838596631
K 15.047574186493346 14.782904482150087 9.572650765598027
K 11.361317057641505 12.11033780676415 9.784792969476754
K 7.913332525460351 9.413802470638212 11.060018814072384
K 12.041585002398932 14.961657622465212 12.980220310750056
K 9.015313272791223 11.760505969471508 14.44197714753235
K 7.736035685830805 14.406364987183338 11.346635795453707
