10
Energy = -6.74773622 eV
K 14.50358118983462 15.972031224314504 -0.015875471787977796
K 15.958969693995185 13.764043929399856 14.283086680011966
K 10.259287849868254 14.822994688795431 17.071906522947195
K 13.264001491953172 11.758531134699837 17.06517436534503
K 17.809829638730363 15.242854879625337 10.61861746201553
K 14.425898218940075 9.521256701174265 13.348082502898162
K 11.420142675057232 12.930244392229442 12.990502705596427
K 12.937460287259443 17.121750678187826 14.402407821346872
K 14.866825280863722 11.813354836487589 9.840168525160859
K 13.404008357388879 15.897098507369652 10.307238521510241
