10
Energy = -6.93959104 eV
K 16.359582303613422 13.566943482873473 10.06743072830125
K 12.312570959910161 11.642050692046851 10.250086827143393
K 16.479308018087323 9.084044885483033 10.434596244535358
K 12.926737915784623 15.506852643497078 12.393286623435314
K 8.76084802038874 14.388864507908458 11.190000134081533
K 12.941489021267309 8.20968953923136 13.013236817187321
K 10.674732448385049 11.908064438766448 14.385431246540676
K 15.12246388310649 11.988889224094965 14.02338037902745
K 9.150763453075587 16.535524325766325 15.116450226407904
K 12.966624955726182 14.864197239676367 16.821221752683876
