10
Energy = -6.5603192 eV
K 9.682714184283977 15.726759785231033 11.738741841503511
K 11.879497764481314 12.019040345116691 11.167910682651021
K 10.846702920471893 9.37283604757281 14.499228425753591
K 13.958101272026285 16.003755560320407 12.868680901058482
K 10.361351981154025 13.624173930321733 15.517118520870213
K 15.963678437387424 12.509634720338585 9.884638158516891
K 13.173399510705687 15.770584603850619 17.680512175230117
K 14.831830736897912 12.017247899970334 14.807294248335483
K 17.382761828218804 15.94459605037821 16.354512347477673
K 0.5429863644607477 14.532470221651588 12.585795533710066
