10
Energy = -6.88401082 eV
K 15.938653500819996 11.632701577723104 10.165743666889034
K 11.673548704693761 11.954427492167367 10.952618575745735
K 13.819609184183138 7.754553543090368 11.225897887171376
K 14.752816825041085 14.878041442291991 13.247981684923367
K 13.10735742179196 15.596225696129707 9.118243022432601
K 7.934211792032083 13.058266154280474 12.881459389526052
K 14.839695865928347 10.57468856509052 14.4773637037394
K 10.552336482875148 16.6629247179423 12.669165564947043
K 10.522420706800478 9.070689432514266 13.996544024090129
K 11.42956870156436 13.278385452357217 15.619881587929097
