10
Energy = -6.86616978 eV
K 13.841384136236197 16.201065602754284 14.220367603671578
K 14.737649280655726 11.715631121443787 14.75084389416985
K 14.275060059094477 13.283433916695513 10.683099729415309
K 13.664623241354505 8.81568915507737 11.512795317356286
K 11.640611736631747 13.686255006611665 17.28109693244816
K 12.784899198514657 10.500895215305514 7.386196437716463
K 10.726706461438123 9.88255979794788 14.941385280889643
K 10.296383333646547 13.940819864859568 12.972109257504924
K 9.672322177676751 10.366589749214482 10.545668364556507
K 10.657411151376461 14.376099987483476 8.440781992614687
