10
Energy = -6.85179868 eV
K 14.277900604368018 14.81689041040384 14.856430745752016
K 9.854950039908429 15.06944431467908 14.248585528493777
K 17.45687547339323 13.119237179691135 12.027127124774875
K 12.8047529939203 14.134237738990468 10.828663597594911
K 8.274127573880438 13.477273144974317 10.521201021540898
K 11.63200749062775 11.998703647457322 17.045064944920718
K 9.488666494081862 10.550472723332257 13.533330751701783
K 15.673526733081767 10.928785790883888 8.746719033806357
K 13.976969530148473 10.425689885944346 13.309622150924435
K 11.396938040045427 10.120115665534417 9.53005379924305
