10
Energy = -5.55403636 eV
K 14.459204342687434 12.858237910129171 11.111275434343268
K 13.888492078616563 17.22975979339578 10.000938304104881
K 10.825228341361399 10.39437682614909 11.738964257097221
K 17.187782229535475 16.36788859525358 12.274070486264941
K 10.50489030979104 14.736939869754975 11.733099229812098
K 10.20818629531653 8.295885483070753 15.61597111134063
K 15.848854967132825 13.232557856066359 15.291015306394524
K 13.21841370198397 16.500674006979807 14.500772563814698
K 11.43601915674428 12.676095328843571 15.592017906141063
K 14.19319019391829 9.477845947445003 13.912137017774763
