11
Energy = -7.77241784 eV
K 8.423190670665653 11.171850560021797 9.501314924877027
K 10.253762221434126 15.105481780177582 10.79463084524998
K 12.755370891214836 11.479960167603805 10.711248071634046
K 14.7281136750218 15.494479752959405 10.505281623454147
K 10.204924314368458 8.188148340077023 12.130931606701715
K 16.937568725960336 16.64385802394865 14.264540003983443
K 13.182302759277182 10.360800040191398 15.020870243337983
K 16.493379295929145 12.345010043636792 12.921677233861459
K 9.334643273730348 12.120751858972087 13.814566794168138
K 12.83191563610395 14.79185329325677 14.397620715526386
K 16.03839955297635 13.48137715583646 17.120888953887725
