11
Energy = -7.54483926 eV
K 13.387885355847494 7.997404625180797 9.846514543301302
K 9.473889254912294 9.341536345381943 9.447673535554781
K 8.89605089559502 5.489684304127048 8.049061039056808
K 9.17097146754999 13.305516390019642 8.305094482109594
K 6.078100874133894 9.481404620466494 7.072437315029297
K 5.429905752515054 6.817733957734073 10.588846056748636
K 13.56267696042268 12.147852463320312 8.307701792672576
K 11.030171026987862 9.547124745992697 5.657053144633649
K 6.444529303971365 10.987900425596967 11.723977499093937
K 11.392292272832723 11.775985979312525 12.18263847843536
K 9.234237248780886 7.2085659699656155 12.919713406589775
