11
Energy = -7.77117878 eV
K 13.231634562756867 8.570607416883714 9.186433092363629
K 10.486850302497672 15.30824499571707 11.656828803554678
K 16.85325890144301 9.363787634124046 11.227884498705242
K 14.166275157736859 13.049121203102636 10.165814787456046
K 9.8953818564104 10.93504511674616 11.044071964666282
K 16.85114816779763 13.016873062761317 14.037252741403574
K 13.10276238780931 10.826830337744202 13.867438879225666
K 10.60468573967801 17.48861195109152 15.709266535749666
K 14.246644549096272 16.46593122143351 13.22047862659603
K 9.412163756791495 13.081393895677287 15.29029461214559
K 13.440533986418881 14.184892533154363 16.885574826569282
