11
Energy = -7.44729436 eV
K 16.86261035421813 10.269037461702641 13.677777706905713
K 17.63123047786281 14.294376144660975 14.646857068272396
K 12.890193096613974 9.43679856794081 12.560638827428667
K 13.719911351213346 12.839877989841142 15.602935218332705
K 14.423194201220854 13.266499486043044 11.362010175158769
K 10.649528100046986 11.72992332672885 9.533698479391479
K 15.126440131191895 16.663782580386286 17.442378039790828
K 11.073352111518892 16.279258378277568 15.600512618530306
K 14.564150057073748 16.993295544382327 13.206236707559327
K 10.946171069544409 15.83630574459735 11.177364917938995
K 10.038375033350468 12.50849227406395 13.738933688152423
