11
Energy = -7.02856638 eV
K 15.805584224389206 14.556510521121016 12.965472825459745
K 11.46477335418323 15.610402220514986 13.331793952945194
K 10.94166747042234 10.868642070888564 13.304862377062431
K 13.72436521391038 11.860403075378757 9.811650748442208
K 16.61497242527366 16.631541529423867 16.847700254165463
K 12.246764653814028 17.514033015235793 17.5325617159887
K 15.356703343871324 9.78912437888715 13.439794709859614
K 13.813015395670714 13.075744710626841 16.57111961240621
K 9.583552883394447 13.356302560187228 9.900368083315323
K 14.34708069796864 0.6195904225560422 13.878396254994438
K 18.222990859997523 12.074033882003931 15.91827147177928
