11
Energy = -7.77877392 eV
K 14.909774411023502 11.568195746304541 12.101148652836779
K 18.3774839747623 13.872731208367231 13.69709627716334
K 12.627420046912155 14.273050265684189 9.246827221309447
K 17.037240283304037 14.205455204855332 9.060698691261459
K 15.144461537054857 12.272224064290256 16.5270852089773
K 15.383680354107199 14.427079016182711 1.3957835031280186
K 14.876671821213378 16.269482213666297 12.608123569723169
K 11.485350359145027 13.50794975253715 13.990503436801506
K 16.04780625138832 16.505560993807276 16.91179295397679
K 11.747122827779586 14.496036028354661 18.46261501433916
K 11.912466076944035 17.72220938618233 15.475786312516917
