11
Energy = -7.49903096 eV
K 16.22706762641799 15.934996704938582 14.67068554300791
K 15.370471143860868 15.911819191681104 10.010703374371717
K 17.969469916304906 12.945130001692448 11.858801447241756
K 14.787846014968249 14.413260077519048 0.22234524494255684
K 15.173640629237855 11.5257204690436 15.14078615674835
K 14.249787001157909 11.175097760127787 10.5180378004718
K 13.697806011513597 0.5857909194923053 12.718626581700018
K 11.47717144592227 9.677933005729047 13.671518716268556
K 12.272640847312083 14.445251630643956 13.030910132978674
K 11.163662259861502 12.6436021911606 17.02021225431271
K 12.284747790041992 17.339463576088683 16.612236910248026
