11
Energy = -7.37448276 eV
K 14.600422199385752 17.713922308837976 13.455453646392163
K 10.696571317689967 15.487975512413739 13.668915932021498
K 17.982161464412783 14.837760292736514 12.310403484950992
K 12.550756354960596 17.26378593538812 17.369062527483578
K 14.01898953481103 14.809371218134723 10.227809042557036
K 11.343009099096587 13.303678193293694 2.0242476290406174E-4
K 12.167258547110261 11.289340488346019 12.006057857436753
K 18.444762084344863 11.072764313528625 14.436619853926954
K 14.490147185788027 13.36025221666813 15.152209433836413
K 16.450260942886512 11.08586488088144 10.566363636083182
K 9.130941517417344 11.659332820550478 15.175799179161245
