11
Energy = -7.37839915 eV
K 0.3743491703911405 17.00922138560608 12.483116343382896
K 17.316236464929688 12.89395046395722 13.321773048063129
K 15.053999015090051 15.189461925492846 10.144694949786658
K 15.910550966729225 8.797332122449257 14.018609307930339
K 14.35923664608754 10.969858518384202 10.380919738640086
K 14.571250167879924 16.46171207578432 14.508537148278094
K 13.915168732036403 12.215078281068829 16.218723716589214
K 11.44866777900382 13.655756758585026 12.507540626599768
K 10.231183438238224 17.347021310708055 14.806567958022185
K 12.4945206522283 15.909913178213944 0.33025715382331783
K 9.499438199307079 13.310479615567106 16.609721812515044
