11
Energy = -7.54632319 eV
K 17.164954030008705 9.877238274054788 13.651999880358094
K 10.660551185127712 16.72044071985875 14.374081031915662
K 14.814274577753357 17.439806889236877 15.177518655849923
K 10.248475592832587 13.277810015675426 11.823665715694352
K 13.75223657466996 12.753455953446782 15.160639319481925
K 17.844682441430344 14.302368973329594 13.983998472975353
K 13.722454555119752 10.6241336900895 11.051552788908783
K 14.157807930337679 15.229532030731503 11.302989745984608
K 12.239153419139551 15.537042656561633 0.26176997098798566
K 17.522280099905466 12.513828023319217 9.939710484063196
K 9.49985673108597 12.860960803716694 16.33067719978457
