11
Energy = -7.77353966 eV
K 15.95093780664214 12.50998773605057 8.071819202452003
K 17.402511034751424 15.7620434071901 10.994740647633801
K 13.19698939236355 14.711359025139329 10.775882644532997
K 12.543977132755249 10.255518897742192 10.60378215804295
K 16.329945724745325 11.489739223863003 12.472957471858765
K 9.839086955894889 12.91611964727399 13.021716412409365
K 11.39501269141132 17.032728311080675 14.07462735066081
K 12.962424542377246 10.649375213870384 15.162462323929322
K 8.725265236264816 10.298867914075167 16.661533043957167
K 15.058952189238319 14.731612226696967 15.112635462799037
K 10.977189793294011 14.024940896755915 17.430135781462212
