11
Energy = -7.49310083 eV
K 16.402003648155038 17.439682565161394 17.16409133245171
K 15.289663125722189 17.091618365387593 9.611210618307833
K 16.400034210915788 12.996817507989341 17.552506916981006
K 14.717540700544498 15.077001625199381 13.69461500658157
K 15.696664696881623 10.681661776864798 13.687338015346022
K 11.431843756310132 15.27457181728318 9.955743904299851
K 15.249497877818241 12.637693442890903 9.594924038851461
K 12.61752585333797 15.589471919557527 18.26421729200779
K 10.290904469541331 14.918998726909999 14.4271709284533
K 11.586738010191663 11.428726090851534 11.87675502008639
K 12.305527753060272 11.520438515487196 16.432577454257075
