11
Energy = -7.74158218 eV
K 10.519677862870315 18.906028283200264 13.792694188710579
K 14.094407996272622 15.990157366474397 12.330118005782971
K 14.634895371172213 0.3909381829040363 14.539200534177178
K 17.401703044182632 16.46974494641134 15.277227292240486
K 9.929328537339657 14.629821797645794 13.80879499938504
K 17.352942073078722 12.928578239561281 12.627961924942044
K 13.086458946194508 16.323377393934578 16.85147329220102
K 13.570346081538773 12.32101106590649 14.877949577499495
K 16.21174416767985 13.390329854894937 18.20491725723161
K 17.09614367571472 9.554380342206924 15.65064114214274
K 0.5490347172362571 12.705298117112987 16.14465341606508
