12
Energy = -8.60403026 eV
K 11.872532612071211 8.081499893928754 12.122694927306988
K 11.930095416393966 12.424734757852708 12.074379447277693
K 7.861058519201207 10.251458145779846 12.093571886720817
K 8.21243099797138 14.257820349375033 9.890129
K 11.930095416393966 12.424734757852708 7.7058785527224485
K 11.872532612071211 8.081499893928754 7.657563072693017
K 7.861058519201207 10.251458145779846 7.686686113279186
K 15.378606432880968 10.361974274336312 9.890129
K 14.836868073352097 5.805780050144983 9.890129
K 4.1983971462538054 8.056328309002964 9.890129
K 8.428942116461515 6.275376827432002 9.890129
K 4.298929580103734 12.408883709873402 9.890129
