12
Energy = -8.39707225 eV
K 13.254967446665802 16.201774865079745 8.865142972249103
K 12.896978314769257 12.498617454629452 11.037799396017158
K 14.405765922958333 12.08000151483584 15.168183913901863
K 16.95999930454365 14.362054730153867 12.028941251877184
K 15.856087327609444 18.832249776634033 11.078090793436251
K 13.219103910807013 16.26371670049298 13.955672431774863
K 17.55966373289332 17.658200149920187 15.024015732702209
K 18.160984989452853 13.59315238987636 16.650889378429227
K 11.325914900955212 14.306184834870466 17.54628805165424
K 15.110726502602311 12.07856828334428 19.630066946751
K 15.024758432128824 16.44174655767987 18.426718179375772
K 12.47628776621805 14.742871552788113 1.5477517856192244
