12
Energy = -8.38905434 eV
K 12.522026444569365 9.471708511117113 13.09702710494827
K 9.985299965940758 9.968105541871449 9.556845369873024
K 9.264747719352007 12.93369646812215 12.706228062287078
K 10.926503659332102 5.673264682102086 10.90429567169813
K 13.07623076922035 12.766578241450974 9.186978057539658
K 10.88400128334411 7.195122811110103 6.373887171374252
K 7.580844067821209 10.54762045256034 5.980052258427394
K 6.8910384013346855 6.942171672505528 9.09056635370924
K 8.00382549424192 8.540974027111712 13.219033634271042
K 5.65484615263481 11.296553300474695 10.199351567146337
K 8.7196083011785 14.284758982728825 8.38765460154296
K 14.335311447804612 8.223728429168304 9.142364733633766
