12
Energy = -8.54608042 eV
K 9.646731459384908 7.630544764491309 12.904629395916471
K 13.431164436982176 9.624975591260975 12.339571088437332
K 9.646740524984363 12.086169840671722 12.371359178408518
K 13.253009280197455 13.63329309417262 10.151838
K 13.431164436982176 9.624975591260975 7.964104911562668
K 9.646731459384908 7.630544764491309 7.399046604083528
K 9.646740524984363 12.086169840671722 7.932316821591484
K 12.607899086019735 5.742151242837552 10.151838
K 8.048606865665569 4.728360912301979 10.151838
K 6.093499131919773 13.677717526744114 10.151838
K 6.682620251570128 9.257200718432715 10.151838
K 9.687149099568206 16.099952112662717 10.151838
