12
Energy = -8.69546818 eV
K 12.63459892905583 14.526648714417577 8.238871088942943
K 15.672753382927084 17.196188832638192 9.926981119349268
K 11.569695623714068 16.447375940785545 12.139064298725234
K 10.379301664950036 12.099205840319712 12.103076129298918
K 14.87285176484473 13.0152012708634 11.859849278407053
K 18.726977430804673 15.265337348323012 12.540246255618303
K 16.303142599443547 12.616551327368835 16.245067555702253
K 13.337538939040444 9.75075711015245 14.49829333008287
K 9.209921343951393 10.320407291229168 16.054491717247508
K 15.231518612671662 16.811230584078796 14.537229134233172
K 12.977599241314117 10.703295709288186 18.753639821912586
K 11.911645762789995 14.075345326043157 15.930735565988087
