12
Energy = -8.54691806 eV
K 14.521733039185866 15.035480370105144 16.747211120170505
K 10.744124396269946 15.350239739952695 14.772137288248517
K 18.393393975002088 15.400322517949075 10.235929934019511
K 18.513559938598284 14.881742970100213 14.573314811906105
K 11.238166369907432 12.318282446667501 18.350983641523595
K 11.856590570126363 10.740568047641432 14.163416635591027
K 14.644943886620561 15.741973700665403 8.144267752428505
K 15.276979384736213 10.783178615979109 16.90286766572837
K 15.636506034342368 12.294205838648137 12.500827407728876
K 11.6665341830645 13.5859363496183 10.802575866700412
K 14.585999268832731 16.682958189703573 12.562076791425861
K 7.8514950139350095 12.115137273590632 15.174417145150391
