13
Energy = -9.36822276 eV
K 13.547883000324795 12.261507906617151 9.47628462981625
K 12.435063946535974 12.918042101357479 13.586805680798768
K 12.279010343144096 8.89378899322087 12.097183180502972
K 16.40164250497205 10.62950530315892 12.419376932989985
K 16.127550790844786 15.076329561423963 11.892545540135872
K 14.867540559898469 20.92866459698354 13.863385823588228
K 12.729605044924073 17.184790358407273 13.811878394312947
K 17.10523165279464 17.692031465042373 15.428910556535373
K 16.830386769603134 13.37620260159609 15.895702019389084
K 14.100377962002224 9.868723748904388 16.1039655989744
K 13.47663773352433 19.194854299455514 17.697515408699207
K 12.90791788519929 14.747430070050614 17.47882627001647
K 16.429206753353125 16.466183940902795 19.485674911362068
