13
Energy = -8.99593681 eV
K 16.790598344251677 11.295192933157146 11.155454144504315
K 14.849894340468623 15.124873733372523 12.37654527866605
K 12.519161079830917 12.972349497225286 9.121225166173469
K 13.925089785529147 8.593040200986964 9.322254848569116
K 15.83016135500247 12.404291266356061 15.892131557644635
K 16.60911730928572 14.390715682214095 8.02855996564105
K 11.007620745965726 11.0283384787132 17.465092127252753
K 7.480619249113965 13.423884615913636 9.994102513696781
K 12.590450005635924 11.022450118216671 13.255573301317748
K 10.375181073266834 15.276386798313716 12.666606474748448
K 12.408012296747462 15.052467613989236 16.404741542126033
K 9.69390236637361 9.680808647411572 10.198978003977167
K 8.138029237943492 11.780681300433544 14.303312031811583
