13
Energy = -5.23450273 eV
K 11.68548775138413 15.558613148940514 8.40457503721011
K 15.148933200711289 17.805232013561508 9.634575742166264
K 14.643481348158005 13.272640029296689 10.917941608390269
K 10.001687953798138 12.476663768158065 10.904519752065543
K 12.764300741465258 10.137553942265102 13.375513507031112
K 12.132572841898343 16.131942827006977 12.852260163614053
K 16.29705761380734 12.210665383114845 14.861902235792032
K 10.159759788670014 13.07340918554173 15.280533326111126
K 16.60445432008334 16.5395625743694 13.49488117096099
K 13.783268318047567 15.063931187137447 16.80663165570445
K 18.449838901410413 15.628229628868533 17.308999636772175
K 12.851306370233685 10.593787573848507 17.737679669991756
K 16.39310907372036 12.423026961279184 19.335244717578465
