13
Energy = -9.1094492 eV
K 17.034269768647544 17.18189482013117 15.66391187591401
K 17.861472555248902 12.923661630342966 16.891927536031663
K 13.948150237613662 18.65833650326263 18.7608011351161
K 15.23978042168634 11.269373244032524 13.6071206482734
K 13.504107766696514 14.453636063680277 16.454795389050318
K 10.866454106127076 11.05624236250197 14.637552048975632
K 16.146654044653857 15.273203539460326 0.8726944384216243
K 12.681196510132752 18.558964715597817 14.550710580113837
K 10.106714840634622 15.178062147463175 13.254264327042302
K 16.368324704407023 12.174274655156287 9.34843624976948
K 12.009899103623459 12.02712385263647 10.451809389605458
K 18.95285104105808 13.936160230923635 12.80019889792542
K 14.635192729498115 15.436985385073697 12.03057552067774
