13
Energy = -9.23687337 eV
K 15.835061907888019 11.60039128020619 10.566527744559666
K 12.1239706189398 13.827350895590865 11.595885073873262
K 18.014359309803286 10.615488946953326 14.385895431416655
K 15.46488160850169 14.34157370830549 14.39377856374223
K 12.706136209675769 12.378854824283216 7.2440441962698054
K 15.609926485944504 7.465083149603175 12.590414481030322
K 11.81811462643258 9.439614851688875 10.569552294489322
K 8.098932034564745 15.611624459750225 12.342127599807283
K 10.342641888644561 16.31624357032721 8.381971271926849
K 8.516424588012905 12.37693494205779 9.093592829781825
K 10.909026606632706 14.325087545594931 15.988507309910945
K 13.253708303302934 10.54538707333376 14.768002367027911
K 8.752653119866757 11.283548493177442 13.448307125228126
