13
Energy = -9.32790629 eV
K 16.989344972734248 11.377006199981842 14.576594892763575
K 19.037319003187545 11.191853616608174 10.847846005081236
K 14.70370852446301 9.844969144066866 11.226326223221081
K 14.097434601726377 16.391715222850273 13.135111309878607
K 9.73209287032849 16.605454471686553 14.008252187465509
K 15.274688065197717 14.741105264180014 16.906467341653663
K 15.766273717579965 13.81899741309898 10.034120277410919
K 10.768918428357889 14.558498888985776 17.8631856673329
K 12.418577378016629 18.401095246825975 16.893673245110786
K 12.668217747036792 11.707013212092692 15.022360585235992
K 8.30695890207463 12.659054938312806 14.788270652202286
K 11.479963272974985 13.361951243590216 11.271951857911928
K 18.51167297906498 15.096455600463548 13.18101021747477
