14
Energy = -10.1576597 eV
K 14.580106791111112 14.554505967357086 18.45985797955916
K 11.288558578156662 17.30548019451501 15.977310092143293
K 18.736424393378552 15.307480196591666 15.68884224266926
K 17.05933071120765 11.285412855113028 16.33453575990991
K 13.412775729879991 9.985405485987886 18.23261101506454
K 15.594650627788615 18.71762985183981 15.59702142533016
K 13.046515264811513 18.37491249007761 11.845476117065115
K 13.471485026005183 10.714126485237337 13.481049682731108
K 10.738895114867843 12.901521284825265 16.50994411938401
K 10.478342047046395 14.536027211754453 12.393246567449582
K 14.530637453663834 14.724718381749994 14.231778928194988
K 17.834834789086372 12.531398214468094 12.13246003394056
K 17.494258498813604 17.156278342295995 11.736937580643518
K 14.301962296252741 14.359093599094871 9.928057498087535
