14
Energy = -10.22663221 eV
K 9.182930828287645 9.663197501439422 9.583243632977565
K 12.355778807503063 6.318201591933161 10.9059426955628
K 5.151893223988987 9.006396922920162 10.953654793868077
K 10.533672141920782 13.737446945146848 10.175237527086967
K 13.139495807001817 9.770854774113795 7.934408753285093
K 12.23246617164581 10.318725410129957 12.793403031015119
K 5.95543337416365 9.390120178798835 6.4483413604459345
K 7.865928510401325 11.852631138670581 13.423383958738693
K 8.67851856168102 7.207823850890327 13.357316586681996
K 8.299989536883512 5.612500505093088 8.681279038616335
K 6.056616875460453 13.136213846904045 9.397891552329861
K 9.388416091054639 12.377948245164259 6.015665063700441
K 9.94183947929627 7.970377764411564 5.122350650508103
K 12.78808757001163 5.208629111963865 6.778949142763458
