14
Energy = -10.25991446 eV
K 14.701631773412174 15.096696200128795 8.676006299753547
K 16.414495840048474 10.83023551095656 8.978452487110278
K 13.213231845038438 11.562334952896663 12.07191485195589
K 13.914002217318808 19.032371349615868 11.108589969833806
K 11.446816009958663 15.457338976617951 11.62021619318398
K 16.9345925861136 13.964469927424139 12.240493360554131
K 16.84805312487864 9.327162891597437 13.279871216227914
K 10.779130483913368 18.49045377318737 14.878145594897967
K 13.108113628363645 8.974914915827378 15.910701046340758
K 10.99259197805212 13.407155825715915 15.432092393433505
K 14.670160232927604 16.579061577878925 14.695225198179232
K 15.44275309633465 12.670057409343233 16.310695712879276
K 12.401718003073414 16.132302841941495 18.552242059704543
K 12.345762295105821 11.688496961407377 19.458406730484285
