14
Energy = -10.40138735 eV
K 8.387326892246756 9.802756507026425 12.729467361221515
K 13.250178349861091 10.264653653281368 13.661930443698282
K 6.484211158046991 5.727250914837737 13.30211080276609
K 10.947372742138214 6.4050557201972245 13.294011802212387
K 4.5285969036869735 8.358826789776789 10.253072358976775
K 8.291841863823095 6.452385512832206 9.29456985118465
K 12.110783761442574 8.85730831260257 9.531924546046415
K 7.7982614997803195 11.04811238826098 8.394481104246644
K 15.16582230803864 12.124639503670796 9.867488688932328
K 11.01446773483378 12.9669644315342 10.970036092982719
K 11.777182722279612 12.478704900781638 6.501634990030681
K 7.96548712261106 11.797040511644017 3.8630321462636052
K 5.384821163492422 8.370508723076966 5.749450339764594
K 9.923514140125675 8.375659217698573 5.616658471673305
