14
Energy = -10.29523319 eV
K 11.254509761300652 12.742769769296928 7.604566165868579
K 10.255362559517307 9.826577291437415 10.93494666046747
K 12.023173978055052 16.529771028377446 9.760174294599343
K 8.62255103240766 14.088797418886188 11.264997474220651
K 17.653129723952176 12.373342013194875 13.251636822381199
K 13.424170404974594 12.82490777858162 11.627337133189473
K 15.812066172903137 16.39456027771109 13.166232914629378
K 13.927987534204231 9.707108623937158 14.645958074819928
K 11.349673978077993 16.15591278725617 14.274086956144773
K 18.728584718160135 15.041760019702881 16.483674811932744
K 9.872218467425434 12.016001086116349 14.876206762075343
K 14.226177399691728 13.512569517160156 16.668322784403724
K 17.5191818558986 10.85575887312996 17.580278516943224
K 15.008538079033578 17.607489180814333 17.538906293926747
