14
Energy = -10.22840922 eV
K 15.09445542145875 18.54433122064743 11.796463707058528
K 18.234869664688706 15.094100333131815 12.02905848778867
K 13.06689608384296 18.920086127376358 15.948806718946095
K 14.175626961497596 14.172131030778672 10.129750434321032
K 17.5757516510406 18.0509771642006 15.634174686086977
K 10.954994747471455 16.513410751022025 12.498616765251565
K 14.547286991060925 14.89742436109672 14.46273105497864
K 14.111980085040026 11.320084116073021 17.220853349284596
K 18.20006400128837 13.427967110229284 16.34844466492414
K 14.915081278530467 15.650968056153511 18.76636637626183
K 16.171713715519434 10.922884803101702 12.898141395521064
K 10.849819778992208 14.78072027965839 16.792412350945035
K 11.462349383514573 11.852153918896995 13.137883815008417
K 13.255566950871291 7.930925163204792 14.504023293713795
