14
Energy = -10.20298924 eV
K 11.40680179586872 14.499576536035637 8.378891368461835
K 15.227305889953922 13.430962037010012 10.171752932410083
K 18.400180152385257 14.421696129052615 13.223232008858883
K 12.354227199830586 16.153113098088692 12.316699834818683
K 14.793098394856097 12.343033876502217 14.581004680821477
K 11.005428017221417 12.019685162342746 12.031641063676421
K 16.4039668899969 17.793466729343994 11.234076461246781
K 15.21663970291719 16.860180003216573 15.637577362125148
K 11.25036093335114 10.095314643006274 16.126170754106056
K 19.252797825991596 18.49868044813522 14.728971377093133
K 18.698181077200953 15.131413767684435 17.56781863718917
K 11.20765087722026 14.5239179246579 16.265871054368816
K 14.876227482045039 13.515703629124864 18.838758410925777
K 11.09079300079775 11.896915255435951 20.081193293535343
