15
Energy = -9.30264067 eV
K 13.462633988968724 10.272393169662362 8.579330159935013
K 13.605517347461493 14.651741590190726 8.724441225023446
K 16.67698427764042 12.333284179000039 11.095789493505315
K 16.001391120453402 16.96647167192269 11.536694535542452
K 10.015168952475829 12.43604698562776 10.325011253969146
K 11.12835256154434 16.639808353908386 12.371196321853077
K 12.392102959006523 9.673745582402479 12.978587947609153
K 9.120298294526872 12.802881906749695 14.560822654321356
K 13.639954899756917 13.795856267796234 13.965009014050365
K 16.241120181719914 10.732793174777878 15.513596436825292
K 18.1610836383639 14.874440430451429 14.946729618143367
K 12.113062345311427 11.122035181146904 17.51709845861043
K 14.869838102361328 17.824163339381784 15.841825570597262
K 11.171968316057368 15.547718318120804 17.47005857394516
K 15.333050368173454 14.259147202682742 18.506336089890777
