15
Energy = -10.91671776 eV
K 9.86451180047149 13.429816137000298 10.682718987722145
K 12.9834021410614 11.854465838684778 7.980768816376996
K 16.412844684861128 11.518773055807321 11.02936800845693
K 15.573926499874972 8.803023115305807 14.478860950956271
K 14.113699587064858 17.416764667379876 14.514511549439122
K 12.566138876291328 10.730298920225742 17.11825708594629
K 17.7464872053435 15.616015990970698 12.59813892870675
K 13.297198358827531 13.064426937152977 13.449459175595846
K 14.109084369265686 15.691673865191825 9.924193742139908
K 9.134659843488215 10.70821095113948 14.151254692502407
K 16.748856910738834 12.962131728510462 16.026514399178236
K 9.92907957903318 15.024736771389424 15.262020203590655
K 10.677625506948958 17.85129269499522 11.807902469082128
K 12.239508199752954 9.18354456381071 11.462538857913586
K 13.354230218852914 14.896078544312466 18.264745914269238
