15
Energy = -11.09653685 eV
K 18.823757480246467 10.815990512196862 11.890345558104226
K 0.376499208257578 14.472491244750834 13.916692163086175
K 19.313349294611072 15.229714522361826 18.491006753830423
K 16.629498137853272 12.984786185203344 15.545170318650632
K 14.47361462571327 10.389604629221147 12.616447724282216
K 17.777050264900062 19.249852553095284 19.49040069313574
K 16.317795654793244 14.61914009037958 11.49508815630053
K 12.21076656111157 12.949224090538648 15.644066139428007
K 11.858586655185578 13.723792676132522 11.129929222418797
K 14.832351284187713 15.760727411727986 18.552514820532465
K 17.477304878711188 17.734292296757626 15.165984354170808
K 14.109504862904082 0.003544127525305001 17.097852231079543
K 13.327786985053649 16.84048570300592 13.935459099610323
K 8.686877377449198 15.20045349538244 14.05456673185809
K 10.710639384517034 17.024156669790894 17.599319303651885
