15
Energy = -10.83971431 eV
K 10.21498156311294 13.335545906952058 15.576612609605194
K 14.521565944204866 14.271617987930778 14.148191568264279
K 16.82146741952685 10.905512869039493 12.139374856591909
K 11.342821552812373 17.538690605005485 14.028750773605775
K 13.150420723534832 16.08382004662708 18.042885481076087
K 11.147048769293642 13.993371136264193 11.212926296364316
K 16.706804532844057 14.12356340662085 0.5368118108402032
K 17.319108257828546 16.968541428241537 16.447990399096557
K 14.118302237017389 0.7091334693259032 16.220381229607995
K 15.217889238623306 14.619822721892492 9.710897406401758
K 18.12760108056854 12.381906793006483 16.1967991829422
K 18.78271789570485 15.026651521086125 12.422656982476608
K 12.676949385764164 10.154130221162264 13.487059020679617
K 15.482571356374022 18.310925356050284 12.334685985142322
K 14.003590659134407 11.45695801206955 17.640842326969533
