15
Energy = -8.34308043 eV
K 9.66740676 9.66740676 9.66740676
K 7.238404803579396 7.238404803579396 12.096408716420605
K 7.238404803579396 7.238404803579396 7.238404803579396
K 12.096408716420605 7.238404803579396 7.238404803579396
K 12.096408716420605 7.238404803579396 12.096408716420605
K 12.096408716420605 12.096408716420605 12.096408716420605
K 7.238404803579396 12.096408716420605 12.096408716420605
K 7.238404803579396 12.096408716420605 7.238404803579396
K 12.096408716420605 12.096408716420605 7.238404803579396
K 9.66740676 9.66740676 14.8543296618771
K 4.480483858122899 9.66740676 9.66740676
K 9.66740676 9.66740676 4.480483858122899
K 14.8543296618771 9.66740676 9.66740676
K 9.66740676 4.480483858122899 9.66740676
K 9.66740676 14.8543296618771 9.66740676
