15
Energy = -10.84538045 eV
K 17.52990964414258 14.0531456409247 11.34814161594485
K 18.55624728499127 13.022093004997494 15.724804503899685
K 17.499114974156658 8.744983419302661 16.717623205042585
K 14.961104725538016 10.913497871909616 13.662515782980655
K 18.973385632303373 17.321681021418268 14.24415192089643
K 15.295207219675847 18.087726929397757 11.344330699034348
K 13.135969650981718 13.572033894419206 10.611275823686572
K 10.955773616867743 17.0354573225287 12.053629624071087
K 15.70330974472096 0.23972666109299448 15.536010250234996
K 14.719376196702486 15.410157626595085 14.692553855064125
K 10.944775797374016 13.482474037717816 14.99887000899
K 11.648263587185774 18.557758376582893 16.013325858193504
K 14.645535529699147 12.061336115030963 17.92554494835001
K 16.716526946707926 16.44587175127362 18.422081970956114
K 12.262702523588272 15.511907364349609 18.99360239287461
