15
Energy = -11.05905719 eV
K 13.774452662910706 12.893720898449844 9.053111659710014
K 12.7538884500902 17.028159514774867 10.50234352696071
K 17.171733649350294 15.84395599259948 9.772798568135016
K 9.458837945056159 13.924171684490922 10.253804568847675
K 17.03670887723113 12.171888031433479 12.32437306500394
K 20.100281720554367 15.283172398914427 13.344457199098619
K 13.231389892379866 13.765260921058665 13.287315126014166
K 10.012776212467996 10.874114060431243 13.679979434517087
K 15.971951627277221 17.06051544892642 13.778150667315753
K 9.4036096495638 15.212450280048486 14.62747565693083
K 13.143320616462347 15.568388494034028 17.225054191120627
K 14.119990372780714 10.55510362647108 15.943450739180632
K 17.319448601908885 13.749496193042978 16.65252647641391
K 10.463983181826718 12.177220868005918 17.937003729271357
K 14.487557513241768 12.342312560419888 20.068086364581383
