15
Energy = -11.07810834 eV
K 16.16073496031332 17.388104337555657 8.888646530903666
K 13.732956871613784 13.539074660456286 8.086722159094743
K 17.357387900005886 13.366751762957035 10.690384998626248
K 9.933758241105659 12.605828572926066 10.327596275027757
K 13.34144513886017 15.736831874937927 11.911702180808188
K 17.31695231101829 17.249372643125483 13.253089476598856
K 13.62527311908479 11.051124005128925 12.142930534536456
K 9.501538859855367 9.68856019635636 13.932755202034697
K 16.119313326958085 13.155624476903766 15.022787430279637
K 10.623911218909088 13.886892873254558 14.681008055389736
K 13.630514250307256 16.48921249576755 16.494286984137744
K 12.871398757285444 10.590254346190571 16.80007905633226
K 18.091679845099826 16.350350041684365 17.621626141917673
K 10.80441137935258 13.926290516283343 19.05985277675579
K 15.27006100868752 13.357064384929014 19.4678693860133
