16
Energy = -11.85376162 eV
K 14.545742544965366 13.58681234071907 10.165325318625998
K 13.201001802149323 9.284446364203625 9.715661321014016
K 15.521831989581719 17.85295376333353 11.681376575646631
K 16.637229499080178 10.432777582078685 12.390792186166795
K 11.479593035929355 15.964242706378418 12.691718264313833
K 18.848321009205296 14.426646661995285 12.001899824840407
K 11.852415735107687 11.453342871350447 13.283803536843191
K 13.715669345085661 7.478118193459704 13.826875723675391
K 13.72198875172377 18.554455752509995 15.722052223537672
K 14.92330092988913 10.819682647905294 16.54089006435741
K 18.308089243443504 17.784830881147666 15.073415842055098
K 15.436264555402015 14.407988735935053 14.336748450752971
K 8.18290422264956 13.546425495953455 14.748808997037328
K 9.229898857901157 17.75769913387661 16.09883924905494
K 11.953966188430453 14.35473938612151 16.907930108136185
K 15.95337384318618 15.806429036761681 18.325453867672646
