16
Energy = -11.94222275 eV
K 11.67746328462226 14.726696847216834 8.455232931149084
K 13.685277495470157 11.190936620173218 10.648257811495826
K 16.02778819559001 13.605821143088807 7.685895992139887
K 10.606920200077495 13.986591680022965 12.821787158335475
K 14.771028070982064 16.140985932648 11.272252798934264
K 17.95014753029276 12.581846691744268 11.639818020149894
K 14.664943278883388 13.387840566340397 14.567491896461236
K 10.663834608482189 18.13296516769733 11.540416913016145
K 16.143710876163887 9.087096660772826 14.015976619909294
K 12.930324662061897 17.454975471116924 15.423720045717225
K 11.761357562681551 10.036546982692835 14.746938878696476
K 8.46902189081919 16.90201637855361 15.467565247313226
K 18.458773575466687 12.18376043124702 16.3753885241859
K 11.110983892977766 13.768286306021736 17.46419991124885
K 15.395467444668501 15.088939022100542 18.560171825836107
K 14.59653763510362 10.638274302906108 18.228465629754062
