16
Energy = -11.60688287 eV
K 17.981649043202083 9.421919279333709 15.875952662582671
K 0.36860229003171435 13.290533391670495 14.815684038407575
K 18.113295514481194 12.595040718544578 18.854732592196044
K 15.917744030042984 12.8502892053527 13.734979853499036
K 18.087730343623292 16.25069905113558 11.86831526164997
K 17.68074177628628 16.599262334489413 16.392985296765
K 14.041805984021023 8.602477153010126 14.057312781124958
K 15.140484173709263 15.550218784450182 0.028492481469897586
K 14.425381243441143 19.594316444256375 17.75394857151582
K 14.030741458419039 11.488782884413544 17.701157788141476
K 15.851516843770035 19.618625884351584 13.341813577617474
K 13.602104783456424 16.251386502800283 11.2789765768653
K 11.46355926018074 12.171458558344229 13.689254658136829
K 13.11113905085822 15.77485564668201 15.871555613689894
K 11.559617930801856 19.58533686503915 14.0593762840934
K 9.38204016859345 15.900836208085313 12.948088092068724
