16
Energy = -11.79740676 eV
K 13.817805328728937 12.26435330789796 9.01411031085461
K 13.000411187447462 16.432120226894448 10.807564843100831
K 17.725425798478174 10.147910560363359 10.434337121010696
K 11.151053542387608 12.62240314210842 12.6278363424693
K 13.753557396270537 9.05222346966924 12.178647194727336
K 16.76478587087648 14.185179171598712 11.883292058782839
K 12.287332414765759 20.65809990348118 11.904943275179699
K 15.567188120444396 18.582011755699078 14.316078586864174
K 16.940288227017774 10.92041592924509 14.902677900734727
K 11.186751482739567 17.804602831003898 15.22706211463656
K 14.498184633196729 17.45817975133794 18.59725759694796
K 17.96177691010247 15.46750707224918 16.67305700465966
K 12.670090363120455 10.407036027460725 16.352833557882565
K 11.146913905929726 14.495634215351298 18.386143369052512
K 14.064088007255737 14.454899972720755 15.166810736689605
K 15.251133493186044 12.834209344866727 19.314134668355265
