16
Energy = -11.90562063 eV
K 14.088412020991584 11.180643596775251 9.740360535656714
K 17.197747043970264 14.632195791523307 8.68056474778508
K 11.186349103791448 13.669552143661075 12.623561949390718
K 10.48556828369075 9.352947111012668 12.077210811437066
K 19.675992444420547 15.546508014510218 12.416848826556906
K 15.39213840455925 14.689230660898163 12.635107105124499
K 18.193651200008823 11.183972989691084 11.48051461632485
K 14.376184911987341 10.420488091288657 14.100454098137623
K 7.966318967568712 16.200160710960553 14.200983426966062
K 17.01965361779097 17.35452593997363 15.745713906750916
K 12.305884319848644 17.52891112028415 14.592639173735988
K 18.18946986344079 12.736009520831875 15.609465660975482
K 13.912720434935052 13.95502217649246 16.895938641813185
K 10.053351253403234 11.553135130734585 16.160540077082125
K 10.030062309274925 15.632338937498194 18.100869850408497
K 13.738209561288215 18.176071804834994 18.750940312825307
