16
Energy = -11.77727466 eV
K 17.05231759320796 13.332348103875963 15.06076811769387
K 1.514159513541589 3.7800104412102624 17.530902379081727
K 13.71490028344594 17.225851921430696 17.875431831845088
K 16.34228247355105 17.550175938065408 14.052705831667344
K 1.0621840286481523 15.573753200882408 12.142459563724533
K 12.718428177830587 14.69570648067145 14.364528383397978
K 15.923762191878634 14.392084208742506 10.813289014108234
K 17.296730126153033 14.838885852837517 0.2850453950220199
K 15.898589703779201 18.283110691555752 2.9528440700888097
K 1.768450054051414 16.02099112620754 16.477259409222405
K 13.191338918102986 14.734265400608114 2.5922704041466567
K 1.1180522803129085 0.9685291357341237 13.959357785251926
K 9.970203193471317 14.73900491805948 17.961432216472286
K 13.756566586602487 12.216169698637101 18.060120153776754
K 17.77677591694494 0.2867242434286863 17.871817160694476
K 0.3718500088007244 2.2209327967527717 2.577030133496396
