16
Energy = -11.12921819 eV
K 18.606985083003533 19.402383422128782 13.839249540813471
K 16.26271929841973 11.314601283520831 13.075953649713231
K 13.378645228107915 12.310313253346504 15.986184812932564
K 15.122416807833734 18.312002517075662 11.081139422549759
K 17.421976631679122 15.316157053474067 13.914037315834475
K 16.476978792519983 14.098378822733114 9.974209377821722
K 11.270419895413886 13.78386388709431 0.017822922551033075
K 14.888924732686368 11.76107698908142 0.8312629481917047
K 17.715994484211127 12.824099131964072 17.140363095144725
K 18.70624444827282 17.287739520801214 17.446424769139732
K 19.264319842102577 17.193962740105892 10.340971244603478
K 14.737392658923843 18.687696365736965 15.518476142011071
K 13.085778883632448 14.608453144949712 12.562677827696847
K 11.1227622447421 16.290622793007707 16.11657728238565
K 14.883396007258758 16.02889400512129 18.682444345200402
K 11.43114074414462 18.56586791342843 12.776043602506967
