16
Energy = -11.74162404 eV
K 1.1155227985988068 15.90112095358532 17.494795964768517
K 17.999217647134362 16.476976975679623 13.334062159194046
K 16.140457853954885 17.114601081296215 17.24196444056052
K 19.107932571205144 0.6957451931719288 15.895991962475962
K 15.12934405728661 1.847335428463302 18.007556534030172
K 11.7713155234249 17.277994929862178 17.70304723576246
K 2.922701751669366 17.665005860853512 13.84493253844679
K 18.792777320573055 -0.012616313607175546 0.828510400220649
K 14.438879713062011 18.249825509154437 1.8831899799077
K 17.679236345024215 12.815279781910624 16.5185764931855
K 13.742543801884777 14.426546604793524 14.576822325778675
K 1.5698173041031287 13.351404082303434 13.418871694600021
K 16.80603561975959 12.129622931272912 12.195698769554996
K 10.822957885695518 2.0271498478552092 17.424314987282692
K 17.46434860895057 14.987188919258061 1.2500752924909233
K 3.6242498097152573 0.1643362680291382 18.097641821063224
