16
Energy = -11.76225362 eV
K 0.3505188489582852 14.356327286369439 12.491551515240323
K 0.3666578306302166 17.262499442891265 15.937608066707048
K 17.291850177523315 15.444943556857378 9.17512625911861
K 13.07760129709222 15.288180147575874 10.666026763030644
K 16.491069702796462 16.931212524508897 13.389912391655404
K 17.842456693858367 13.244362468274169 16.198592993888415
K 16.186523946005558 12.168313316372684 12.148321496746854
K 16.181539756976346 17.100525277955263 17.994160276992023
K 13.22941719825991 14.173026352363765 15.409912909704882
K 9.174687881839574 14.737964965360213 12.504975863275224
K 12.240759830134404 18.156115788664543 14.73556705724951
K 11.751332846283546 11.177309722847813 12.12477003257738
K 14.730195432095783 13.052913956544618 19.676211184982613
K 14.325417155906717 10.115998383776919 15.969884654594136
K 8.870819669191501 15.77730129748023 16.740573741388612
K 12.131296474725449 16.583071927516812 19.50022087946168
