17
Energy = -12.43855213 eV
K 12.442784806925145 13.848090692503192 13.29370116308525
K 8.005051193074852 13.848090692503192 13.29370116308525
K 6.524064108074514 13.904457143545303 9.055643018430446
K 10.223918 13.886136358944318 6.31597621875776
K 13.923771891925483 13.904457143545303 9.055643018430446
K 10.223918 16.025885985174675 10.158528571822128
K 10.223918 10.223918 14.38887813710491
K 6.330854402851501 10.223918 11.419893557950855
K 7.957840512037519 10.223918 7.115777777528789
K 12.48999548796248 10.223918 7.115777777528789
K 14.116981597148499 10.223918 11.419893557950855
K 8.005051193074852 6.5997453074968035 13.29370116308525
K 6.524064108074514 6.5433788564546935 9.055643018430446
K 10.223918 6.561699641055681 6.31597621875776
K 13.923771891925483 6.5433788564546935 9.055643018430446
K 12.442784806925145 6.5997453074968035 13.29370116308525
K 10.223918 4.421950014825324 10.158528571822128
