17
Energy = -12.79660953 eV
K 15.135381509198025 9.597313978595622 18.085469688218232
K 18.235527666215937 12.569229497284445 16.646548494779775
K 0.011556588781907977 16.61572427842827 15.143130717720098
K 13.833947232231973 13.822327116175998 18.46972218658987
K 11.04990559496749 10.900900934248854 16.45400638851454
K 17.512640150149043 16.28438718261605 19.158828130427015
K 18.82034549971177 13.47997872015682 12.189330733352735
K 14.761361136098198 11.45744442135727 14.006091748957857
K 17.711750581345193 0.019781188380176597 16.882029473949984
K 15.477525013317715 15.7943035262658 14.814379152769154
K 13.37169859342149 18.44611622404781 17.66828905184175
K 10.898803618570055 12.945559002457056 12.291315647595054
K 17.514147450210743 17.758095010351052 11.4841782920528
K 14.771903105527658 0.5745235298800766 13.826329991676843
K 10.49261820852432 15.354526060933328 16.06596432564727
K 12.191593308363014 17.340419579259297 12.311603315565772
K 14.757484402285797 14.204090835650081 10.336885669555699
