17
Energy = -12.70535263 eV
K 13.697841598555984 13.45927100356765 9.369664311019772
K 17.50015152449653 15.43159523924098 11.239335537010305
K 16.980945123739783 10.647515082787343 10.507933545158991
K 12.987533628452796 17.12235925303248 11.955577864139137
K 16.608145626199576 19.517120554924734 12.947713992283038
K 12.653943700957504 9.442200988224496 11.469740675630721
K 10.12270634989643 13.366746697507581 12.425250948372526
K 14.406153993936668 13.020178644666828 13.621937842130807
K 15.850763434909855 8.658039879878734 14.606014659917298
K 9.329664025756701 17.276779176753383 14.44271938307018
K 18.764427923760802 12.228479615659712 14.40401941398706
K 11.511215941079485 10.31481771687271 15.863252864899234
K 16.558728740928117 16.181952670282268 15.88043223812416
K 8.106159137182104 13.28840145438055 16.4146248545942
K 13.206497092379811 19.144063661948373 16.032467969624147
K 12.17849643174031 14.969752399555409 17.135257412658863
K 15.510986193213572 11.905086427902493 17.658416954565137
