17
Energy = -12.44321105 eV
K 17.655084714560285 18.291963937848102 15.024127253539577
K 15.679163364454048 1.7871726697042556 14.593874869620835
K 13.434484718267218 17.87059302904812 12.871252549043788
K 11.557147003413899 1.1059747263234678 15.387144850041166
K 17.26794092703072 16.042185264582482 11.037614746715404
K 17.6466472741753 15.693763812405535 18.754458758961512
K 20.122968580637842 14.513822488324106 14.660390788975109
K 13.524304950188261 17.598507247209074 17.424319200990855
K 15.611329496068965 14.436492034777542 14.97364363811266
K 9.379457049477391 17.613742450426216 15.36812071384249
K 0.7747578093667069 10.059506991864712 14.5849158579802
K 17.607971280310004 11.584079421910339 12.130663921056568
K 17.8027186873637 11.2879408778127 17.253641817841647
K 13.491135314521932 13.396759061009716 11.180426306663309
K 13.859785873704986 13.10017793939584 18.89828179231825
K 11.244557068011089 13.759228278263237 15.086316160901625
K 14.042881839084856 10.250412766389358 14.940122876220665
