17
Energy = -12.56878538 eV
K 16.129309217245464 9.15431447198797 14.59295941621298
K 18.144358849744883 16.116789829863425 12.003445890186914
K 14.780553993349798 12.880357417645413 12.375460779246488
K 18.706867235837695 12.762445098283914 15.370900143892024
K 13.48675631028999 8.84390802641826 10.881637682539052
K 13.518846512598783 17.264894401721083 11.965230673222537
K 19.93674335740583 17.337537739613044 16.07606836064666
K 16.671742045576693 20.227547039067765 13.863136307922943
K 11.655646607019785 10.500607055106835 14.553010476154945
K 19.739511884290472 0.744660884015184 16.836780208442875
K 15.632469760046872 16.04829051077194 15.613688284329944
K 12.49640345535643 19.45846100384471 15.774127579360774
K 17.765684622806013 15.148904672973728 19.435843802156956
K 11.276734552595913 14.842857700988102 15.325436013233906
K 14.620353490958546 12.078169859952768 17.5854969863317
K 16.339904059410273 19.47455890094981 18.531326262715034
K 13.174450060275204 16.30969035865201 19.26555616059503
