17
Energy = -10.90965626 eV
K 12.111618566831426 10.676576359560887 9.798934473523868
K 13.81030379448352 14.758555653012264 9.177098659389904
K 18.14517008784557 14.534520327342344 11.638663438468484
K 9.192893112847354 13.9172505645781 10.137499088195126
K 16.441379432691562 10.925816681904694 10.017766329775176
K 11.033351337005461 17.40246813187608 11.780680910641712
K 9.623751711253844 10.973197831543867 13.381120807359991
K 13.535752646337924 13.550797124315057 13.33212697643854
K 15.272428444116786 17.554986417902562 12.933993427157956
K 12.164893675070731 16.99554762099161 16.17515097264562
K 17.260704529520805 15.072993037193077 15.9606568957778
K 14.018833721958279 9.34969283628618 13.838109210365069
K 18.19132293758261 10.964869671858057 14.043208143747194
K 8.534305859102272 15.036857358001516 14.4798107857518
K 15.638391869405504 11.256567182896918 17.508162670337555
K 14.397385015201541 15.047170720255604 19.387062533308807
K 11.346311548819171 12.700930770556004 17.128752967190216
