17
Energy = -12.65509669 eV
K 17.320161975394903 13.1564476720966 10.60619423733862
K 17.51686042632981 11.689864988590287 14.834554492304271
K 16.685226028534778 17.548534994556576 10.308101858887856
K 18.840985793512328 16.12816790232157 14.230851981889343
K 14.206139620601926 9.600464462922224 16.797635731738822
K 13.33447251496817 11.306703625709087 12.760144324492948
K 13.133509011254539 14.685253736555431 9.48681713296689
K 15.664145403447366 0.7350207406838314 13.48047117540985
K 14.590108476292366 15.446511390408519 13.706192812078859
K 10.004699596574854 14.942663969863407 12.827542703709739
K 17.81208419977422 10.998804065236559 19.256567653629183
K 11.575953877679453 13.172815585958048 16.670499075769424
K 13.470716517813552 12.043060287061628 0.9335012486651366
K 12.114755491933145 18.620806990537723 11.630187624276665
K 15.691102661189543 14.586739535158507 17.856505668167152
K 16.432063413712577 18.78586194480514 17.20499558897823
K 12.035881665564647 17.87439032483203 16.20507309573083
