17
Energy = -12.55408012 eV
K 13.359725481843995 7.141396688553265 12.409091408073124
K 7.1403058723944905 13.254254129041964 8.658187057749336
K 12.759152428392555 11.262924454943978 4.8974550998692665
K 13.49423936801755 11.695005331499718 12.466501101108737
K 9.3921665 5.478485096470627 4.898710687396735
K 5.290093631982449 11.695005331499718 12.466501101108737
K 9.3921665 9.398351137208323 11.309645534177838
K 11.657242319306345 5.602830652543587 8.64759289513921
K 5.424607518155998 7.141396688553265 12.409091408073124
K 9.3921665 4.802050081975674 12.465838692048557
K 9.3921665 9.392670970208467 7.1124813222439
K 9.3921665 13.89709948886417 12.409823652296721
K 6.025180571607448 11.262924454943978 4.8974550998692665
K 7.127090680693654 5.602830652543587 8.64759289513921
K 4.822557364233267 9.39267532723233 8.656337186334682
K 13.961775635766731 9.39267532723233 8.656337186334682
K 11.644027127605506 13.254254129041964 8.658187057749336
