17
Energy = -12.64770319 eV
K -0.18900023744887626 15.435143190285634 16.892666888109176
K 2.750690896403854 14.731450005492878 13.583616873288843
K 19.110541025059188 11.770492995990946 13.627847253709731
K 15.748895857407078 13.967322108364746 15.601575275333044
K 16.175370622799694 18.401598301613912 15.998374748000181
K 18.24773223099877 16.152910373593468 12.490929512111716
K 15.997693771459328 15.738384983830674 -0.020600802545910946
K 15.225898129314112 9.564299182235677 15.070447051436265
K 13.635938608115758 16.577391256783972 12.52150595739433
K 13.608581449785275 19.511158558743478 19.481559834324774
K 13.60354944117671 11.755005171911648 18.762805283030335
K 11.798207839338449 -0.027298793196937027 15.235987749302929
K 15.156892583556036 12.347700701439411 11.372753244114362
K 11.594708132000143 12.313134981435306 14.352152044386887
K 12.111393658873531 15.828781540325187 17.270405684646683
K 9.305832842725428 16.184302210523498 13.600814113898757
K 11.050329588898615 13.845964157892661 10.059478694831082
