18
Energy = -13.41102093 eV
K 14.39226295220037 10.05503571408578 15.227352951781464
K 10.003030808522931 10.787787144508723 14.077752399996198
K 18.733066432424287 11.115385652348468 16.26974766113636
K 13.333799985782655 10.742192147994393 10.894257194224165
K 11.140222870413638 11.87647495143676 18.14550250343285
K 19.64949956424784 13.748175824097219 19.654291612841785
K 16.752495288320688 12.976062289678303 12.61529822305579
K 15.317588847169391 13.874416224298376 17.770574521327916
K 12.67662016761632 14.331846736885376 14.123494001820353
K 17.366865129133245 17.576881914838843 19.46958210070207
K 11.124457347958383 16.275118497673038 18.10532021879678
K 13.724612056624201 15.02516479210649 9.66116885317764
K 14.449188850112447 18.183678569371963 16.173061937685098
K 12.01047416238989 18.414561794041628 12.3185904212025
K 19.09051007101805 15.592934184060088 15.55896145584145
K 16.530449249052776 17.46408365012645 12.235773593504986
K 18.409313486453527 20.004652905736354 15.557349116611366
K 14.82327729968583 1.694086881649236 13.348032627520872
