18
Energy = -13.90723763 eV
K 13.051757669357702 15.715444657601696 8.40681144001111
K 10.26884038703433 12.469531852770185 9.674690864321509
K 14.698309124970837 11.761449001402827 9.257320565017732
K 13.90440743000383 18.649461767954207 11.56398856942923
K 17.01004698367768 15.387756488195487 11.139319101568715
K 10.060584516717327 16.379901945040526 11.916680171680904
K 16.805415467510894 10.943986794654258 13.12697629422817
K 12.411157814008462 9.432802318001356 12.37974080890431
K 13.640644740802275 14.100588205938887 13.686007335344984
K 9.2894664034594 12.436402621908709 14.035367229798192
K 16.825756734805978 18.40950109095657 14.818786847077293
K 15.133877466950539 7.623681243643671 15.518964535591605
K 15.409740237808116 11.62821796174591 17.57595010937638
K 12.279805650390436 18.038959787398007 15.719485666341656
K 11.361372202185496 9.694547501270472 16.827131787648213
K 18.3387153818757 14.4023519508032 15.53277808330883
K 11.46227461769068 14.066395534101865 17.723498302424723
K 15.358221229683958 16.169413335545645 18.40689634686055
