18
Energy = -13.2878596 eV
K 0.0583085696417512 13.133630447694033 9.781266110751485
K 13.541326608221834 15.8807618798174 18.77120258471925
K 14.536576750165539 15.794944997755207 14.303464767878976
K 15.32050251143852 19.566896688748987 17.004442713359563
K 18.801029969006926 18.054796835454205 14.321694280410476
K 4.518212286641196 16.53918036623842 18.005193549315443
K 0.9826833521922268 16.92405875884225 11.565024934203878
K 0.34566730267088297 17.29178111682174 19.213957517042
K 16.443613659137114 1.6125969863482328 20.294944251480636
K 1.9968202629457863 19.159727366142715 15.307483368661288
K 16.523495662900267 20.699863702137435 3.3348835683901283
K 19.49113780988519 21.000800409436074 17.66246236706622
K 17.88324520458302 15.114029548004709 17.4798312826994
K 17.249142551952385 17.962459071842005 20.909453815503806
K 20.462539479430575 20.88627162283476 1.0996217407343611
K 13.2148702689115 19.89924090736656 0.008622415653350566
K 0.997524062260025 14.662433718041314 15.634986012130053
K 18.424319647337597 13.687516869377838 13.147116311979238
