18
Energy = -13.86762973 eV
K 15.112656795725268 13.071804693818251 8.514320790064332
K 11.014593316030384 13.881471953721428 9.480977823418652
K 14.049773565785394 16.9361422961493 10.826809774665024
K 12.63685746526315 9.63499686254663 10.57571544073573
K 17.334509069477615 10.553178350128013 11.143781578651385
K 18.006463917405675 14.894376327416028 11.26533821769127
K 8.651102617593716 11.718805848024605 12.283288637347063
K 9.926231896016132 16.014961582548843 13.260469023009383
K 16.4315474577706 17.173876231522392 14.658053797227252
K 13.514204285926324 13.145739782727702 13.198451517810604
K 12.757666276440995 19.324077570203972 14.409338630917237
K 15.125523854281946 9.104304203678003 14.48698915707566
K 10.875764437980475 9.199119296696699 14.895512110921565
K 17.602774430257085 12.797689855017115 15.17463473390129
K 9.253288914185095 12.971016441052793 16.4627952009889
K 12.110469326732876 16.214575743837184 17.24809690910953
K 16.11882219158353 15.416971579219245 18.519703329395437
K 13.45052287011628 11.919664070263893 17.568496015641774
