18
Energy = -13.78567652 eV
K 15.440115263287774 12.483173383767717 8.638304189527702
K 11.756678490792629 14.74960440528052 9.496624583857054
K 12.366979886615033 10.135546053278945 11.239198831341717
K 16.176965310980535 16.075064746759463 11.24067996455104
K 8.852920094719513 12.67308771232789 12.535591775582953
K 16.33502538050192 8.356536300075804 10.388799323283338
K 8.093124020555528 16.826727684743997 11.296229156761306
K 18.51860234324294 12.172906929116358 11.692492895395612
K 12.134528416912643 18.294211953141016 12.172100032130276
K 14.561828650299312 17.622731313820413 15.918416942749111
K 15.634146945717726 9.776656030217232 14.483366900889699
K 17.748877393239738 14.28842799252171 15.467374715908242
K 13.540674376894557 13.802715536849057 13.676417800998221
K 9.79722758092561 15.893796778770547 15.430575784482492
K 11.326374186526678 11.239489672309082 16.245531433555147
K 16.710326394966444 15.871059903117686 19.41145616474571
K 15.32377215866604 11.63404567889892 18.4730837833504
K 12.341617161283166 14.764001981131903 18.853539777018238
