19
Energy = -14.80058016 eV
K 10.3610495 10.3610495 5.415056489849539
K 10.3610495 13.974704655397318 14.699875392238084
K 5.18145546110346 10.3610495 10.445405726716027
K 10.3610495 6.071165499361165 7.375207043107771
K 6.57203746296052 12.55526596298673 6.911038879049137
K 7.891664680140255 13.977622652793245 11.006209518781297
K 7.891664680140255 6.744476347206751 11.006209518781297
K 12.774649638620227 10.3610495 13.780814089948198
K 12.830434319859744 6.744476347206751 11.006209518781297
K 14.150061537039482 12.55526596298673 6.911038879049137
K 14.150061537039482 8.166833037013266 6.911038879049137
K 10.3610495 14.650933500638839 7.375207043107771
K 15.540643538896543 10.3610495 10.445405726716027
K 10.3610495 6.747394344602681 14.699875392238084
K 10.3610495 10.3610495 17.439567379398078
K 6.57203746296052 8.166833037013266 6.911038879049137
K 12.830434319859744 13.977622652793245 11.006209518781297
K 7.947449361379769 10.3610495 13.780814089948198
K 10.3610495 10.3610495 9.733719650698784
