19
Energy = -14.5285394 eV
K 18.34451919875958 12.230730063264676 18.80124499186003
K 0.3302427623339741 12.197950691688737 14.201336514688965
K 18.08682306469399 17.348134479948175 19.19460230202226
K 13.706907860210617 10.908328205820817 18.00349538673885
K 16.646985120589388 9.659282955914591 14.772657233347777
K 1.1260327939270307 15.729663203621758 16.461078927109714
K 16.223742159474646 14.275841945293507 16.011602278857257
K 17.004946063731705 13.287308252516414 11.575696505663473
K 14.472309873463336 14.789974933178735 0.36456281256958256
K 12.91320216528973 11.502870540666061 13.49425333692451
K 11.544393793643948 14.734258813416483 16.866601875023996
K 18.06735649253473 18.101359137787053 14.411882390652135
K 14.212758143190104 18.50180460968805 17.571729387577857
K 14.107910996900404 16.319094138770797 13.166543108672656
K 13.060499405847068 13.897104807689148 9.433410204225744
K 9.941189103319369 14.780395097347176 12.604758492901984
K 10.669643732155373 18.735001272999014 14.828706580324116
K 14.438130246726024 0.9141221897420675 13.509348846623915
K 11.867779068203557 18.4603733159852 10.320691860081073
