19
Energy = -14.69626536 eV
K 9.185576215055564 12.599897617122773 14.491589387083298
K 14.582343150611482 16.274382253134547 10.488946080159508
K 13.185712288373534 12.109944583741495 12.615693131544798
K 13.748292876102273 15.111265184356172 14.992798947680825
K 10.385943908053859 9.365082232249884 11.223813068036986
K 11.613516653551155 8.958851698745159 15.667640225363007
K 9.843443893371411 16.738192730329423 16.4070772878013
K 11.598310817436252 13.186793310544143 8.699269188420878
K 10.31223151090542 16.066788423685477 11.926422785245947
K 17.062605832832194 14.491546284950296 17.83453147288557
K 18.900321096459614 15.418130702292059 10.211589660808961
K 17.66186608949627 12.74955836165254 13.519461235432761
K 17.363933221344578 17.354688288816536 14.170017116716188
K 15.329246309192854 8.54624446796997 12.551876729694198
K 15.505633875029009 10.482731258500054 16.737648873994598
K 13.889448252288227 17.715518849053367 18.3284587522053
K 16.0173105768042 11.99122473398957 9.252679208776003
K 13.04253033008784 19.24539347656172 13.892152691093361
K 12.132646675330454 12.954679114630842 18.34924772938208
