19
Energy = -14.76858952 eV
K 10.1379995 10.1379995 5.605953379034566
K 10.1379995 13.338581030423093 13.929391421695295
K 4.500085701145477 10.1379995 9.97017186697335
K 10.1379995 6.170481541367976 7.620974103920631
K 6.2520347876292695 12.354543482126187 6.519572882826744
K 7.087361608250023 13.604846028618308 10.780754026732634
K 7.087361608250023 6.671152971381691 10.780754026732634
K 13.3314708814394 10.1379995 13.755262483009083
K 13.188637391749973 6.671152971381691 10.780754026732634
K 14.023964212370728 12.354543482126187 6.519572882826744
K 14.023964212370728 7.9214555178738095 6.519572882826744
K 10.1379995 14.105517458632024 7.620974103920631
K 15.775913298854524 10.1379995 9.97017186697335
K 10.1379995 6.937417969576902 13.929391421695295
K 10.1379995 10.1379995 16.938304328426838
K 6.2520347876292695 7.9214555178738095 6.519572882826744
K 13.188637391749973 13.604846028618308 10.780754026732634
K 6.944528118560602 10.1379995 13.755262483009083
K 10.1379995 10.1379995 10.324825960746933
