19
Energy = -14.23587151 eV
K 19.391813446122566 12.967958666373402 13.69156931058961
K 14.996914756798587 13.743604746540347 14.767120177798134
K 17.89145567465329 17.418281047870483 14.432462776401763
K 16.747303599551756 15.21311285010705 10.694901809015676
K 17.492584438865986 10.654187783189197 17.142580699597847
K 12.928105073791011 10.277254514838349 17.114336996726717
K 16.78002333819075 19.84540609583117 10.971243491589613
K 12.184155446900151 14.476650850918405 11.024440057704544
K 13.993406558324713 17.84809680769934 8.376785530964654
K 10.647007169244842 11.41008095853759 13.704510985630836
K 18.62639320917049 14.862247267544499 17.882338616822267
K 13.335288896811173 17.923681940973637 13.202711189807422
K 17.8797297227501 12.177124591806896 0.7868055129758277
K 11.033329251778948 15.089319028927898 16.15732735144213
K 14.145604132020082 13.708872391204125 19.378607664208815
K 15.598525115401154 0.8095877737448072 15.182207816618547
K 14.426707484233276 17.73583846087171 17.617158661695214
K 18.283880896158042 19.58693685241387 18.42796229881891
K 16.72240373041653 16.687216292733726 1.0590536582550305
