19
Energy = -14.75459716 eV
K 10.440326 10.440326 10.440333587376225
K 10.440326 15.694028904533436 11.322565287990056
K 6.725125155514564 14.155526844485438 9.558210551709593
K 5.186623095466566 10.440326 11.322565287990056
K 6.725125155514564 6.725125155514564 9.558210551709593
K 10.440326 5.186623095466566 11.322565287990056
K 14.155526844485438 6.725125155514564 9.558210551709593
K 13.749795004650679 10.440326 7.182454761470721
K 10.440326 7.130856995349324 7.182454761470721
K 7.130856995349324 10.440326 7.182454761470721
K 15.694028904533436 10.440326 11.322565287990056
K 10.440326 13.749795004650679 7.182454761470721
K 14.155526844485438 14.155526844485438 9.558210551709593
K 12.78018136187859 12.78018136187859 13.698083788691045
K 12.78018136187859 8.10047063812141 13.698083788691045
K 8.10047063812141 8.10047063812141 13.698083788691045
K 8.10047063812141 12.78018136187859 13.698083788691045
K 10.440326 10.440326 4.302152809200245
K 10.440326 10.440326 16.578450043977895
