20
Energy = -15.57841693 eV
K 18.67649689084575 16.859708006920304 17.770801587367284
K 15.544876754861725 13.870306051286272 0.159388550341892
K 15.9253467046346 18.16855858698366 1.128319693254382
K 18.344775955237495 12.43865234980479 16.67612446589412
K 14.040493305653301 10.734362782375953 17.41757139450201
K 17.77373809434901 17.995082254095717 13.3330341501518
K 12.254548844173836 16.6117010272682 19.242661856144405
K 15.190020032870029 -0.3817197841342968 16.848602585601256
K 14.872654408383616 15.118045749055955 15.699155237784467
K 1.115219361205191 15.190443622179803 14.101835147323657
K 11.473267732061688 17.748012365719156 14.830978855650635
K 10.567113673108928 13.35460026838263 16.660685350584846
K 14.263606621098665 0.3814807876472461 12.260952193468812
K 0.7384697708534704 10.816236038570574 13.006685171721106
K 17.386079844123724 13.46400571481303 12.198958070487043
K 16.644519345487844 9.24708649058302 14.040898077744508
K 13.022442323805798 11.73344251154143 13.061833009334768
K 14.049352964261624 15.94563594272714 11.137485599879255
K 10.556840969510816 18.519802143870752 10.402289676268884
K 9.656436738701617 14.47380133426043 12.27441225165567
