20
Energy = -13.95180555 eV
K 18.469453756263178 10.924484259161312 17.00677769669785
K 13.683040636490848 9.681808755644933 16.288443569692458
K 14.77793126167977 12.231654957403384 19.924282768259236
K 16.27365883628438 10.137379922312437 12.568014235477486
K 19.59205397762292 13.309572927253349 12.741826116874082
K 18.138057462856768 14.792702690224871 0.6172946616406811
K 0.1239413714252442 15.533114944066405 16.67797215900672
K 15.9392827784834 13.644803546004958 15.51813835083029
K 11.61334451810863 13.698722305115282 17.36908967504679
K 12.179019585010733 11.852634924470285 12.761369697716416
K 11.61571048603148 15.517138098778334 10.139798436886686
K 18.089574196955848 17.56195973241802 13.401188348792864
K 15.923051440189168 14.066361163246246 10.389926353756827
K 13.555719959530428 16.292050211006153 13.939984743757554
K 15.549262520412347 17.27799663262026 18.0163470602093
K 9.160038183351297 15.186364650531692 14.05965467155715
K 15.012278391713835 18.681052752373372 10.484464356217778
K 14.779630982989044 0.5772920391074551 14.79644490040736
K 10.813114979338179 19.404060833347582 12.651505189718494
K 11.12113864056281 18.311838751795538 17.05680016475926
