21
Energy = -16.00892676 eV
K 9.788534157580633 16.07373151924818 12.962334669299356
K 10.533038349830703 15.896342969660184 17.752752523587006
K 10.922356029157585 12.038557000794963 14.769874487472775
K 13.659571659254452 18.69510957849712 11.852452979291357
K 10.655979249433114 19.67709524858783 15.197501395637868
K 12.930982289824994 13.874206568435298 10.722670062750161
K 15.2095626933087 11.531150092696127 13.62285041583605
K 14.010726437300448 15.720717058708987 14.997302573354707
K 13.698631990053086 8.652909854543116 16.636345666903807
K 11.486351006065078 1.3608272595915836E-4 19.624502909329735
K 17.037894401975052 11.798988314959654 9.420285961979346
K 17.699703372338014 11.176305344877562 17.404394934386367
K 13.651977231971207 12.62716951907831 18.465603035570325
K 19.601945222523668 12.267965295544638 13.280527433730219
K 14.797078744280437 16.692043578505082 -0.3915598492661922
K 14.812558278938 0.019588708730995986 16.680396836129372
K 17.802012761818006 19.251111281878547 13.713612061303794
K 17.170130609547623 15.617638515739728 11.516510151010683
K 1.8736882156600108 12.982371334043492 16.996668630135513
K 18.061122197004725 15.640541184756746 16.627854418826942
K 1.3372610590250988 16.493483120823473 13.692694725541156
