21
Energy = -16.19349956 eV
K 10.704821 17.254688724838378 7.186794910337513
K 14.524416842079248 12.938725253646199 12.393010932523024
K 14.366999929310776 15.20256093356805 8.551726382831417
K 14.366999929310776 6.207081066431951 8.551726382831417
K 10.704821 12.883781193165696 6.9815126787644255
K 7.042642070689223 6.207081066431951 8.551726382831417
K 10.704821 8.525860806834306 6.9815126787644255
K 6.859151712000622 10.704821 8.481318512833225
K 10.704821 10.704821 10.97394464646912
K 14.55049028799938 10.704821 8.481318512833225
K 14.524416842079248 8.470916746353804 12.393010932523024
K 10.704821 15.252363660916318 11.159705826307968
K 7.073004862569857 10.704821 16.25240707159357
K 10.704821 8.458346374842701 14.962434825041385
K 6.885225157920756 12.938725253646199 12.393010932523024
K 10.704821 12.951295625157305 14.962434825041385
K 6.885225157920756 8.470916746353804 12.393010932523024
K 7.042642070689223 15.20256093356805 8.551726382831417
K 14.336637137430138 10.704821 16.25240707159357
K 10.704821 4.154953275161621 7.186794910337513
K 10.704821 6.157278339083683 11.159705826307968
