21
Energy = -16.19625571 eV
K -0.019396636359325023 16.981999566400635 13.246476884001531
K 18.310572798485758 12.876609816097908 13.63016199535829
K 16.00811024452847 16.224380904611877 10.702895814843153
K -0.04996108484332649 15.065487286083501 17.540125896591665
K 16.24824966997397 0.17123936238251242 12.95880272511122
K 18.792316159243946 19.531322728477992 17.073300768576598
K 15.313664665125275 11.971767661821305 9.991377486082136
K 0.7011389122076293 18.052376300218125 0.9950869692479114
K 16.065377621472784 9.200101196721068 13.292533261146094
K 16.06106200892913 16.445133330838722 15.463835596035338
K 16.227166238324866 16.939870954212942 0.01639249503728753
K 13.581980062125552 9.17643072062417 16.73913843155318
K 12.209019592396508 18.08923740945195 13.270484838669699
K 13.661994261137998 13.368111224106066 14.104609517913957
K 11.067260234590716 10.686054845895393 12.368989065634496
K 14.034768003977623 0.1890748842223479 17.102987812754158
K 15.832211518099507 12.704141247131407 18.045388193429783
K 11.604977311538466 14.731115352711804 10.33036801957266
K 10.527444350161817 12.153177398548124 17.36991921298961
K 12.10940086970372 16.167657724559245 17.794009481771532
K 9.230573636141962 15.086740757338077 14.358292613106734
