21
Energy = -16.3427249 eV
K 11.84479871740262 14.09915734102554 12.40164001930163
K 11.452582717492268 14.104877085894072 18.98497505363428
K 8.815700662017683 13.298005299311532 15.457966182930694
K 10.766271753713847 17.349154009108936 15.612528422250648
K 12.792343111836566 11.006807141284604 15.602698095829078
K 14.328648604814068 17.96605493927593 12.94090341370201
K 13.728777583806231 1.0491041634070417 16.144151290392017
K 15.007252739861629 15.176363848400255 9.434646055684304
K 14.769061499780774 15.162366444746823 16.36178941678878
K 12.947874161153631 18.46568349762958 19.563588411497275
K 17.765687940213077 18.67377280259776 10.162097527315641
K 16.159255373839372 12.647893160561589 12.941732848107662
K 15.94235374373073 15.569511227624087 0.9826476294492046
K 19.39926876138125 14.237236159291879 10.132728476568131
K 17.234606784707797 18.67492458959216 17.967101098686413
K 15.18954167328009 11.444225549751062 19.43038151584394
K 17.383770652421806 9.79502064109277 16.085278593171072
K 17.733299127324393 0.9126059892942199 14.074524221749028
K 18.487107653093428 16.371103639985634 14.051908226781581
K 18.819514513370525 13.722907531760567 17.965388793071146
K 0.6175516335509994 12.263010517598422 14.07770122672765
