21
Energy = -16.45518486 eV
K 14.742428389251746 15.781507746034746 10.518475703241476
K 14.216430382385427 11.356228734395028 12.091588267741255
K 18.151365261839253 12.837094996039813 10.53044653929527
K 11.332412968908432 18.38390083326172 11.712828570893322
K 19.18115035216896 16.991902193798854 12.140309217448696
K 18.364679124054643 9.872367988295736 13.958277616546896
K 15.468630270965711 19.234765099890733 13.292412859544207
K 10.610255105085352 13.976206038797107 11.322129408406612
K 0.9373682858719572 13.222977115108922 13.991113906653066
K 10.565044642709715 11.135739343772503 14.734524558758704
K 16.869943902860413 14.302328579659001 14.61299421256326
K 11.701925236424202 20.006156903352615 15.815500877658415
K 13.08541040272761 15.438534074962623 15.101442742133003
K 9.040144091595558 16.204781238493492 15.464920103362797
K 14.66048760872932 10.884930434685936 16.617770737870803
K 15.725040020925503 18.85659261002138 17.6798734204702
K 11.329839500604177 12.853296297617108 18.800041092612968
K 19.51885579267064 16.576595402088973 17.126041868881035
K 18.87362833616223 12.08167998249039 17.97410254064764
K 11.756048491345771 17.27577807469209 19.23027096109963
K 15.481641488536221 14.70406936756116 19.262367849191126
