21
Energy = -13.81740473 eV
K 16.733773215489244 13.342589892753194 9.424002662621909
K 12.602896189358935 15.261841087916425 9.611389932572326
K 16.242689598258444 17.767701657010768 10.839071705831058
K 13.177037016832578 10.953589049869182 10.975140735896296
K 12.340718428724811 17.995357620026205 13.21822306166017
K 19.25481151595406 14.790379817039415 13.012215488563655
K 14.950291960406238 14.278350811771878 13.19588666852088
K 10.551007869421412 13.827759054659142 13.526006230051639
K 17.218578210208985 10.526487290578935 13.104881936609065
K 14.91955590955962 21.518416378675173 13.313024717283941
K 16.81676226285905 17.895223422084946 15.243542327589841
K 13.337756017266297 10.715106991439233 15.504357474462134
K 17.508504868351977 13.053128665688735 16.76033421559181
K 9.422551847713459 17.062203105670495 16.470408417722226
K 20.439237331814585 16.279620444408422 17.1293717858437
K 13.288333274219363 15.23478028076508 16.919801206260697
K 16.698073773595635 8.6371699790146 17.32811289184437
K 13.364149430940019 19.577783972951117 17.27142902007837
K 10.040427225303457 12.595220883209842 17.88772770343687
K 16.48040467850549 16.43937323650874 19.405572691133756
K 14.398494172825533 12.03397115556767 19.645553924034818
