22
Energy = -17.03936877 eV
K 11.575358942058758 8.650738672526417 14.202510266375837
K 10.846274121850964 11.944227713755454 17.124450266251465
K 9.205316520223047 13.053905455591833 13.222248064555199
K 15.014698066901394 10.865653760757247 16.434976920763855
K 13.485400502292665 12.427534702699688 12.553158349591293
K 19.412417278454164 9.529649039630424 16.45607358800309
K 13.545948610559622 14.566024929343083 19.42939410774208
K 10.676275141440941 16.346714390635906 16.43709436274946
K 11.708101254356352 16.624612904606686 11.971771111218063
K 18.11021529689325 12.53269406564366 13.470864276485296
K 17.896886012537657 13.328409303037173 18.63665077098274
K 15.19502398392663 15.713027323101612 15.343649675671383
K 1.3251710551949978 13.774322230919381 16.114381684349546
K 16.52376096509878 16.80193859354837 1.5149734054719972
K 16.110563134485616 15.983612978364677 10.864027066309923
K 14.223559470290105 18.992743170430504 18.622846917876792
K 12.33401454110216 0.15615893961743377 14.827782527805732
K 19.700411247792175 16.729345272705075 13.464016579847423
K 18.658759661509205 19.808027722788538 10.460595888629358
K 18.651801389970103 17.50227212041642 17.78976728622914
K 16.76901596520561 20.092496374004504 14.575476156142258
K 14.23007384441014 20.134618300209546 10.827188190218086
