22
Energy = -12.44549316 eV
K 0.9991555316192487 17.125940168818627 17.259874717581003
K 0.336284686266893 13.605319220040274 14.534313224846336
K 16.91056197937492 15.110677179382886 17.45923963880632
K 0.026001863091617887 12.501374774737435 19.052910954444048
K 17.981389292190425 17.351976646963063 13.537697475742275
K 17.104819425537496 19.697983231953764 17.3146456500536
K 17.274587200813567 13.442004799758006 11.015102782881554
K 13.619104719435342 17.510678653415084 15.601687950151623
K 17.507581071643983 10.317078117849734 15.986287292478163
K 15.08411928452691 11.877591533514167 19.827710764015457
K 15.08570978042911 1.1450511177107716 13.235542540750297
K 14.487611187742875 13.301477883750334 14.355253855345788
K 13.489591985196917 16.47559611473086 0.14109303908320045
K 14.934572276106323 9.411832604554222 12.151857042677253
K 14.133339581825414 17.09545034320228 11.037005813203809
K 13.255767279097077 9.243797764781194 16.595401383517785
K 10.687692405427038 19.845651568393034 13.048758395863349
K 11.33290947100274 13.32973081950785 17.594467696284706
K 12.884016956290962 12.870884633895946 9.940642675023785
K 9.588667032032928 17.607381927096704 17.265649799115128
K 10.454689538786027 15.293313273991902 13.26870256881008
K 10.674907336251712 10.836591037882517 13.426728749136272
