22
Energy = -17.22639048 eV
K 17.499680735990765 14.235942536119488 0.5009627156195304
K 14.328392830524571 11.356304745368025 19.035974099348813
K 12.67412560738444 15.631067831641415 0.5936958440356345
K 16.815598546033243 18.624136468787107 19.70568632367559
K 17.73193501219428 11.702788368556032 16.12074130712153
K 11.349219870360308 12.482755533829263 16.077011266091333
K 14.079026510312278 9.157044569757446 15.040553271878355
K 9.883982202887614 16.61127700692194 16.79873864869125
K 19.31588938365937 16.054519397556927 16.47753159454644
K 16.83525530818728 9.8922122696093 11.71153552709019
K 14.840256734612241 15.645357229464302 16.74552525335755
K 14.622074276303223 13.75485614419522 13.148899906941468
K 12.848892130905357 19.663388472671972 17.9180704015829
K 19.053024361345262 13.944465333321453 12.434214777331405
K 16.545876828814894 19.394534036408555 14.993909367745504
K 12.246689571484623 10.998297666193427 10.978413172523306
K 0.7074313906269962 18.289924147174737 12.804429629455655
K 9.52568771828879 14.632828699665247 12.767017083558406
K 16.100106406942743 13.163145820960887 8.901387828012219
K 12.437337199761014 18.105363899327624 13.383094710385581
K 16.374530853330445 17.356988218851015 10.988052766354558
K 12.285871431662695 15.508546605745325 9.512189241918831
