22
Energy = -12.1851273 eV
K 16.04394249256106 16.794489070839756 9.488654585104749
K 15.576235956225272 21.50873488404955 9.735545604519718
K 15.374465761808864 12.277968417911868 10.401525143167229
K 9.246886197546038 15.992957419659524 13.296687726344043
K 13.450791741647832 15.18556869922167 12.703798259982134
K 16.262849560367464 18.885334254285603 13.397103984199148
K 11.023007224586497 11.550968463320036 13.110512925017078
K 18.253547067704755 14.664069930194103 12.679702499955884
K 18.5771865272647 10.201346360481356 13.159343401428874
K 12.342378495827363 19.05814807463102 11.182433810029234
K 14.885618906544654 11.599999196291458 14.824528151427748
K 19.599654543390066 17.219218772621048 16.07350770067288
K 11.981136233536304 9.550468786619048 17.451110050844257
K 12.141401797751822 18.317216452157744 15.778846780644779
K 15.534858164320664 15.607545752482118 16.34161344148552
K 18.755005072142023 12.716805286656625 16.825904031039872
K 16.075955750608504 19.57460003972756 17.959266692855262
K 11.16701880135529 13.961083975942808 16.841407924046198
K 16.270962302784554 8.588367850239704 17.63285024045699
K 17.701174041890006 15.92901150870041 20.062421910660824
K 14.793693428690311 12.38839347854696 19.349299497596622
K 13.11846062942022 16.603934023395286 19.880166336496046
