22
Energy = -15.24912284 eV
K 15.57234399986933 14.833052716993848 10.79493586046485
K 19.539469211394582 17.182486533701262 10.571408363085595
K 15.414714680864586 19.40655066944619 10.975385336787706
K 19.237071381008345 13.457559649448063 13.04667852761425
K 11.71472735507553 12.730885653560073 12.68907505252649
K 21.594061229306934 17.650493463624933 14.703092828764936
K 15.802674023156639 10.541204961650013 12.203617217305897
K 8.470820819824674 15.428021051643594 14.222133768812077
K 8.271754947503442 11.228148708842463 15.48473265037833
K 17.297845963007955 17.34321065155773 14.235610447426279
K 10.621064462039245 18.507927730451396 16.964942110749938
K 15.267962960173254 13.734385200142597 15.06908642347524
K 11.366661905665813 14.025890397181318 17.151293590014006
K 13.16185797123432 10.04879818832906 16.03854219598764
K 17.837367975927894 10.44560303802309 16.245818117507856
K 14.639723459498711 20.49241257920569 15.506563652692742
K 12.630430876322567 17.004132368638665 13.484324486281826
K 18.641332308188595 19.023880721389475 17.990249095645655
K 19.01112393047319 14.652686938575103 17.44108510358129
K 15.342624439131752 12.682642723505088 19.29061982440485
K 14.650103001544954 16.97688055264362 18.09834007978567
K 17.4602733603002 16.14915576295924 21.3384755282199
