22
Energy = -16.90380896 eV
K 17.493371905431392 11.869763801547272 12.068407148019071
K 17.256326831148904 16.007675667691203 10.054551875367352
K 13.416938342816005 13.753924749100376 11.519516629063942
K -0.028877298433269687 18.20603286596653 12.988824133705199
K 14.066510996471273 9.977528324480769 14.106721950245314
K 12.994280225039805 17.785637447328888 9.684351638037086
K 15.749585258893532 19.71898344596964 12.580505713070828
K 10.191512292643013 12.245062100423493 14.345468864014583
K 0.7472029537140158 14.07621869781961 14.539633141584776
K 16.6697458136083 15.640723178099496 14.485013149638988
K 11.911841276938443 17.47238423919493 14.133632551419035
K 18.590945472219335 1.697304875361794 15.58231288079194
K 17.456436957010915 11.52390030606309 16.673640520237058
K 13.37862148579656 14.176033651317386 16.541564359693417
K 0.5212976432774309 13.410856902179717 19.125719278885256
K 8.989443639561259 15.339828580586078 17.335625533085018
K 11.915460681481525 18.048983826069332 19.263035720716974
K 19.687498661644927 17.513780468618087 17.450696063579468
K 15.380778080081885 19.108501155840916 17.07748000088476
K 13.364642909718555 10.385147398439917 18.534424205036956
K 16.319301681195473 15.225578909753553 19.645899346523187
K 11.881602604341088 13.915488532236282 0.7519591598499189
