22
Energy = -17.23140366 eV
K 13.534926654071175 7.108636416860972 10.059644753037984
K 10.048140756890895 9.983264105062995 11.306204847344128
K 17.889959075013035 13.393379750699056 10.85849599849746
K 13.375322021920326 8.544696200474771 14.5382148570837
K 17.491568202116138 9.032061062479048 12.27157607059366
K 10.103192859340249 5.630700758149328 12.67580830658847
K 15.748815665741143 12.546437043830315 14.898915548327606
K 8.93336371162289 8.977754505310129 15.42344988514815
K 6.000393220531462 8.16234779617571 11.571715935518357
K 6.885639234038607 12.521091579173891 13.029973688204656
K 7.119779703693328 11.15739668388068 8.210768489296942
K 5.787003514027617 15.270613430804593 9.724017904807301
K 9.303646900107234 6.792732459499314 8.288848361367533
K 3.1813566458495353 11.592104101676766 10.447239634968469
K 10.264393868635391 14.204851147408151 9.367265782240569
K 11.81668306440513 10.43755663136645 7.092268258512156
K 13.841056161377187 11.566384335485132 11.148400456675574
K 16.419030207756737 10.049009545855563 7.871814732697178
K 11.216826465266486 12.960493981979598 14.850067140949255
K 14.535500175081026 14.208745298913563 7.661002416531941
K 9.157629069287303 16.43505174772957 12.993687457801203
K 13.775990380870956 15.854908417184452 12.14083591616405
