22
Energy = -17.06498854 eV
K 20.84162208919067 18.590859234358007 15.705533352342918
K 18.976522534856564 19.72338467469152 11.708735246280279
K 18.95984064208952 0.750613621192729 15.291558801439162
K 17.896886876269274 19.965719400337793 19.29988258349218
K -0.057844553542477986 14.398323320604558 15.658620348422145
K 15.352259409440592 1.0518991299498297 12.598946475946029
K 20.608184938902387 16.370733326715833 19.694693753190656
K 14.711119913383321 0.9760983115343886 17.052791166608525
K 14.613433377912845 18.578011187088432 11.277704797368202
K 16.334242382027533 18.994665084564815 15.305390444626129
K 12.005922693159214 20.34665903411109 14.58234444818948
K 18.04042114875229 15.392665342137434 12.936635431185987
K 17.180547615245622 15.035206140777834 17.26924464598426
K 20.30737809840225 11.708215795218482 18.985855494772498
K 13.266175486593271 18.808553181021544 18.75383468701914
K 16.05497038308285 11.957628062802723 20.421453722694874
K 13.144654135200838 15.867848800822975 14.781928225712921
K 16.064947894081374 16.43479480472979 -0.49620144818442014
K 14.581404341083427 11.68557049583318 15.882940382475898
K 18.832224188495882 11.300478196687274 14.720723608824084
K 12.583085287436727 14.475487218638266 18.96287506213005
K 17.353840821531875 8.537756469984807 18.047968387044733
