23
Energy = -15.66415057 eV
K 9.141785551812232 12.47745458206175 10.36232694
K 14.837554232330666 10.36232694 6.564233554023103
K 12.518801275689174 6.627453274132691 7.92414631629064
K 12.518801275689174 6.627453274132691 12.800507563709361
K 14.837554232330666 10.36232694 14.160420325976899
K 16.20991332873151 12.883098785034043 10.36232694
K 16.20991332873151 7.8415550949659565 10.36232694
K 5.255607641787852 14.168082675046163 10.36232694
K 8.124868176561508 14.238958477598354 6.563885843585226
K 6.0498935701831495 10.36232694 7.922454441609696
K 6.0498935701831495 10.36232694 12.802199438390305
K 8.124868176561508 14.238958477598354 14.160768036414774
K 9.620394057587081 16.686449731966317 10.36232694
K 12.518801275689174 14.097200605867311 7.92414631629064
K 10.362159329200155 10.36232694 6.391627044686326
K 9.141785551812232 8.247199297938252 10.36232694
K 10.362159329200155 10.36232694 14.333026835313676
K 12.518801275689174 14.097200605867311 12.800507563709361
K 12.804226387732573 10.36232694 10.36232694
K 9.620394057587081 4.038204148033684 10.36232694
K 8.124868176561508 6.485695402401651 6.563885843585226
K 8.124868176561508 6.485695402401651 14.160768036414774
K 5.255607641787852 6.556571204953838 10.36232694
