23
Energy = -18.06125061 eV
K 12.654245272671208 14.050247121105006 10.034570428683557
K 17.218586902740917 13.844960714827787 9.96975703980503
K 15.069148088017041 18.037257491617414 10.555133166355326
K 19.03207770225669 12.590243469175059 13.947021350500016
K 11.281664067415862 12.258375215709751 14.208319230461383
K 14.968217092613063 10.421271730771654 12.23676005074183
K 15.062305842083465 14.65761723096175 13.756117231239694
K 12.956321325595107 21.485816122807307 12.617971636767184
K 17.446641202100174 21.51907364246366 12.754856021809236
K 18.922143714933352 17.046293267499063 12.91486319927511
K 11.30758448741535 17.10014509115042 13.15853350128169
K 15.237904469727765 18.590236195892054 15.224106664725424
K 21.88853731517979 15.587654932866092 15.966055680066034
K 19.285928776840123 19.3417254175483 16.722574641422355
K 12.615720780112555 7.976583585865911 15.954473985446763
K 15.411849467416465 11.358839425250638 16.71514251377223
K 17.686175050606863 15.192578605478635 17.52542594566954
K 11.514790423375107 19.889986246558365 16.915574313041287
K 12.45162194483831 15.403238505250075 17.43827687140183
K 11.223204787338926 11.322002511572808 18.691584224397097
K 15.217986083740195 18.182359507087696 19.663320913651642
K 14.475808605665938 8.541532176603468 20.050136678726147
K 14.843405061341727 13.373830255963268 20.751293174786444
