23
Energy = -17.83240957 eV
K 19.14333101958784 12.406854143127589 11.34727176998228
K 15.514189973188433 14.22730814357286 9.38984198936723
K 13.158156460192862 10.505032243498201 10.176339857406738
K 19.738585058747322 10.689132902655547 15.411111407465853
K 1.3325026633631876 14.682233267128426 14.654270026290366
K 17.62037988364625 16.21313470815038 12.984802802784607
K 15.37231980647148 12.133604463824325 14.031269044742034
K 12.02607774651621 14.67056081207286 12.036044005281836
K 10.946855027484904 10.607477725448362 13.890078809185951
K 14.278104843491764 18.394512104467317 10.627774465731305
K 16.29353841618181 10.178767083204026 18.376181795389545
K 18.030161916978486 14.290951948978613 17.475470975157354
K 14.312187313224353 16.192643526277713 15.923248518075045
K 12.389812319443621 12.217610417422422 17.851224954026186
K 11.387778700027544 18.92777767439683 13.980234001658065
K 16.02325298209814 0.03905069266947946 14.303527397652061
K 9.735223056272728 15.037476074963473 15.763078176336965
K 15.064396202280001 13.894800455777876 0.648177981454387
K 19.543769715696815 18.440696099099725 16.532358617343977
K 13.298034123243859 0.23302857110627886 17.676345524249683
K 11.798958207767205 16.591279297323 19.501188400459693
K 17.678054249800162 1.8566484081462669 18.412310473777644
K 16.455663226315604 18.08096181410215 19.860038882633713
