23
Energy = -17.79733768 eV
K 9.326558510305832 16.039354576855256 14.895533983806486
K 15.637875456437786 17.5555788567193 10.482809615016496
K 12.309641877512615 14.357100032744732 11.732386018085728
K 10.167839075158959 11.518363676376149 14.576244229216329
K 13.258863240580926 18.234756656545084 14.240823492257054
K 18.62728235439983 10.41957004651448 11.178929620934884
K 9.66165512789229 13.982048088294189 18.968120625053007
K 15.992639708204775 13.35507329192774 9.502261433818498
K 15.281137067069231 1.7026586208843655 12.436988089547084
K 13.19224633877123 14.308171300961815 16.37332707736216
K 15.256058221391008 0.9533918353112183 17.126225281976843
K 19.714601751820602 19.7839182180892 18.384441743641375
K 11.896615946478782 18.065055459608697 18.62429961805097
K -0.01927284067686588 14.870103081219849 11.55475228149971
K 16.70414725250545 14.566364580440615 13.986116822939037
K 14.901426626783378 10.602827959479516 14.096463967161412
K 12.82887031227264 10.38694648672603 18.263729780686724
K 13.781703293088343 14.17332126812853 0.7637014131734036
K 18.205102633862417 18.780001513253737 14.169627758881862
K 16.348137912721782 16.878681846062875 18.245918256475576
K 17.064732525613262 12.301071576439714 18.293897158503626
K -0.12577283857028743 11.51980565515837 15.150781966149529
K 0.34015348117454164 15.583940194545232 16.7383056459508
