24
Energy = -19.05544259 eV
K 13.67832000529532 18.97887309306063 10.001820467509669
K 15.602142224970937 15.30581207138013 11.85853048849848
K 11.132987887481422 15.301375061504993 11.423790284571561
K 13.728311171015298 11.232402169457256 12.609228442924653
K 17.0968220952756 19.681752349344585 13.017689959979002
K 18.287878329385478 11.460968501522347 11.850422019890742
K 9.674902699643493 20.129083303442517 11.405367302350017
K 13.34222223549746 22.674999582615268 12.969180671487111
K 16.725117364214523 12.736620605693307 15.697546150091465
K 12.557179041526314 18.551051582008597 14.403746036635003
K 20.99700730745546 11.400043762862238 15.752387439873939
K 16.05309316594566 16.76811035015074 16.34299510886821
K 12.227382350310902 14.125554918411074 15.624753188610502
K 15.273460623900311 21.201639986211305 16.99054453709287
K 19.7915844810319 15.606620047856026 14.061137486388995
K 19.76437467320543 19.149652192128 16.99546998648157
K 19.743060978319935 14.751210191854065 18.64491450511448
K 13.732405765872985 10.22519637317439 17.48835949119203
K 18.290023844236014 10.346322222294987 19.243443777548645
K 12.613459317508529 17.46103621844163 19.00719168197069
K 10.778104136210438 13.301263291341689 19.74836556476079
K 17.45406791958645 8.387225867923854 15.242598967449872
K 15.277236148555955 13.94385236880503 20.03566301899824
K 17.067881463188385 18.168359118151116 20.473878651346553
