24
Energy = -18.80423308 eV
K 13.936982494148891 13.486272014211531 10.53818327872461
K 14.762559026194394 17.989976091566355 10.197900748160345
K 12.081520863089436 10.145106297853337 8.367400886802622
K 16.593032352843135 10.146008483987552 9.571560052455096
K 11.140388993875794 16.595558214148703 12.69177886667034
K 18.21381857654974 14.80255825760629 10.794383284175339
K 15.362661642503827 16.0098804336257 13.95902345679468
K 17.018332383082814 11.73831934247108 13.754611838819601
K 13.808457485200071 20.143708552385 14.245888455157054
K 13.411463958173009 9.387330245162005 12.594118417880631
K 9.745983366620557 12.253950115964614 11.61449116562114
K 18.168129339129766 18.998589838548877 12.817091068481622
K 12.59509209688865 12.903312205920967 15.003087613597215
K 19.53580333661362 15.39555885782902 15.364864027070844
K 8.764977247422227 14.527413929788143 15.911567912020592
K 16.87851731820895 18.73622260232247 17.22765404995782
K 12.323006278165703 17.140457950396748 17.16343984881382
K 14.870948069260608 9.907862106578246 17.10865640193001
K 15.877969231351807 14.21356405445856 17.9063572664161
K 19.229005094122677 11.601924703016058 17.750969494372296
K 13.396099326736019 20.95593075184448 18.957965407617948
K 11.907663753219529 13.384873623879725 19.366316414490193
K 19.29955410653897 16.064159419728995 19.949763358973055
K 14.895778867495912 17.289207114141313 20.960671892432483
