24
Energy = -18.54777182 eV
K 8.695800535084187 19.223565497394993 12.207055055249258
K 8.539275263419512 15.939591011301376 15.336323124797335
K 11.6462871428281 12.601751608465262 15.187056961102632
K 14.864456209228544 12.992897716140357 11.803641880126515
K 11.939624962583784 16.211984797445087 12.191617510510747
K 12.978593939519827 20.534975166041143 11.314033653090263
K 12.006130778358875 19.028041497225846 15.582452957564238
K 11.66027568901643 15.556980900657258 18.758615291331346
K 13.693570890296424 11.488955556419565 19.07454263131449
K 18.497772545394614 14.118330713562314 9.412353925563222
K 18.13613051245995 9.967361976289512 11.449877307356841
K 16.505320326908535 17.40980878538509 11.985853523786774
K 15.74842707639719 10.351517895525303 15.179587306176412
K 15.21064293849125 15.442623548557041 15.92389461646845
K 19.13511291752095 13.710034660731326 13.866387612366486
K 15.188959812572161 18.88772016243898 18.854422807526426
K 15.736110194986653 14.841925925817105 0.3884618336000408
K 15.953327490403014 0.19418934574819455 14.786903724068626
K 18.154958286949487 12.712283366923408 18.11516914970488
K 19.235620779809363 17.762480864379697 15.679198939813409
K 19.27343918500537 17.32308525022192 20.106227407778633
K 20.345151229108982 13.328923767236223 1.115263194751247
K 18.84698390288796 0.7628736828013061 18.17632093235314
K 1.393214747736408 14.595005301556585 17.766987896922473
