24
Energy = -16.82672899 eV
K 17.95780839438839 4.650300315459682 15.771909250376199
K 0.07734588559192845 1.7606695492176394 12.923147285469986
K 0.5355765152932884 4.769452297296152 19.69788880112042
K 2.8471745601884164 4.277115233756002 15.698680725395118
K 16.340636119538708 2.40201450604713 19.359398218820896
K 16.085501514993236 0.4614299405699159 15.273920426857067
K 13.661281194921223 18.516114899078204 18.820356162894612
K 15.575847768782008 15.683772521781604 15.954170810674343
K 15.8148259093652 14.774730440486206 0.7842081543198312
K 16.15732690282979 18.906459764180827 2.88211829842769
K 17.76202525751742 17.91021241550253 18.688538424135302
K 19.513873059804894 17.36097455184779 14.628231732078406
K 0.397161378099118 0.6117229140393133 1.4857765525307782
K 17.909016165355165 3.364977322198733 3.6876191645316405
K 0.3249531265933004 1.3077575634584953 17.046708497259388
K 4.121148390539703 1.9097105831466135 19.31728810676364
K 3.7636227921900978 19.57789651740774 15.05264664156123
K 2.6963413970099923 3.2660637764167277 3.6979786462701503
K 2.6825199934158133 17.39502236900751 18.770773672443045
K 3.302972390445323 15.129582336939734 15.285908005629608
K 3.8318373200037814 18.679009673208977 3.1141684884108267
K 0.08930993307040762 19.4581959592143 5.530864654542625
K 0.047716492826216705 16.08600317820926 2.4676396243633976
K 19.519263623935387 14.140725375186841 17.872964537753816
