24
Energy = -18.5435255 eV
K -0.19301643444165548 16.28188141829931 14.01426431346913
K -0.07553913262870936 19.23398509319652 17.30421023516166
K -0.7822209843295915 13.263302216138468 10.726447544923607
K 18.98451595308572 14.821209664733558 17.766437332999683
K 17.12216302831381 1.6639845778321838 17.545892943499002
K 18.425173466988166 17.576459522053142 10.307168532753792
K 18.44316754125186 0.224759619149779 13.484223321144912
K 18.113441142047368 11.186923691694052 14.644238810802419
K 17.28097480593264 14.40626810632902 1.076263847265136
K 17.671509394194388 18.779371108998458 -0.021357624983578006
K 16.24138945870051 10.69860630918699 10.54537521948836
K 15.124932080474975 12.546663465713896 17.64431673580469
K 16.239335913059637 18.101477720673866 16.27360841262524
K 14.54093554481767 19.021139238431935 12.00554487920675
K 13.789455089576428 16.26140713154648 19.575442059254303
K 14.776954060175246 7.82135729602103 13.632004629944449
K 16.215520905436893 14.79151022509676 13.260183469534063
K 13.638877592763452 0.13756199308215417 19.927249356133107
K 12.895476815049072 11.822165577510086 13.686406453355785
K 12.153831963356586 8.891365213773508 16.983584497277707
K 12.21507380063874 16.290329621035177 14.880773802320025
K 12.756564019257285 0.32480638396655076 15.621831477121153
K 10.724743604038476 13.307480522295743 17.87231564577624
K 10.010669339281488 18.190512213754012 18.22690410869098
