24
Energy = -18.66662432 eV
K 9.34173383082739 10.435692024341698 11.9051203568609
K 10.408219296230206 15.1324538875387 12.227140580608088
K 12.63711447160229 19.278869515442768 13.02937532243591
K 10.252116360706578 17.053896355545607 16.419704991685357
K 13.691211322905549 11.876319903354785 11.932550822166897
K 10.802734437038522 12.36020709204637 15.730260931287825
K 11.541431664953324 18.18163119962002 0.7114356358654319
K 13.324000412394025 14.563842207543699 19.15631869972457
K 14.745767754456011 16.125796556510497 10.418387638150364
K 14.051543616405185 15.471604478982712 14.800058406259865
K 12.626059613685042 8.248104520698204 14.096497996254232
K 14.45558259491476 19.203696011302135 17.44355459717078
K 19.264003351051073 19.59218454673268 18.151980480976142
K 15.293610395526557 11.488237543012335 16.5447334082814
K 15.970820466231348 0.34730326313951765 10.018036808582492
K 16.301509728419997 17.455696355168627 1.1003351163189932
K 17.19524432453584 18.64000179656196 13.950536708889985
K 17.26140270496129 9.116975681371585 13.522030134784329
K 17.828088621903834 13.747755968432795 13.005890549657492
K 17.424024382666925 12.937299414001703 0.5829199930098686
K 17.657708271712213 15.625050162502083 17.306178482387892
K 19.282891535017114 17.095769272116097 10.397932835213613
K 19.921755254016013 11.899732898781199 16.413924590296617
K 1.0837915215775904 16.671775855562142 14.830233296679182
