24
Energy = -18.71746566 eV
K 17.27360213310842 20.566132069071713 11.708071956584481
K 0.7206924729211284 20.287264368874784 12.767769179531033
K 17.2667632450277 12.360623793397064 11.9779376545261
K 19.20080509842414 16.543361310943375 12.56383455784345
K 14.665602517723386 16.875176818004718 11.296626832338081
K 16.116700352875934 15.066396390016038 15.278683264142572
K 13.876758296529822 19.873655044087442 14.65703347267653
K 18.30815878361628 19.523290388210608 16.13141193569124
K 1.179294609118434 17.24449986851367 16.079399778383276
K 14.70017976903524 8.67256706597959 11.991115936888667
K 20.23209486183262 13.160332570358461 15.79059865157317
K 12.812342940166621 12.762124979957783 11.339698393507543
K 17.63017748897659 9.461330535813506 15.377050784388045
K 10.851389885000534 18.796790199299082 17.9363000233464
K 19.332091862047548 16.124494980611868 19.181009214634756
K 11.663159093261454 15.760061861771646 14.65852625029697
K 13.531743465185501 11.452670396611305 15.5987762665007
K 16.732286115182085 12.383361868667148 18.811503140052075
K 15.057270781805123 17.65791703497583 18.3905094768724
K 13.952179961102221 0.9713489012219478 19.136806839718574
K 17.27699572145002 19.921066317209846 0.35902146095425863
K 12.819215087035058 18.765168814455702 1.03606518137535
K 16.06681625414769 15.429573643939959 1.106975343903158
K 12.44815231510882 14.458803125802977 19.14017073762488
