24
Energy = -18.95787266 eV
K 15.967023008181034 15.241699734689604 9.053425498388718
K 11.83430644208167 16.90035614193207 10.63272190091592
K 16.03930913641057 18.56728790120964 12.378826398814487
K 12.140544980345819 12.204703686038938 9.877047187479384
K 19.096515321477547 15.08436136358738 12.550777122257415
K 16.850641954654943 11.188159978690607 10.968657999346759
K 8.142794438226215 14.397769081748393 9.750729826503967
K 14.445664606524401 14.27274270090709 13.129446414870412
K 8.192270534759828 17.61368376288058 13.136672290326368
K 10.116094312813045 13.563249951711072 13.742592627174913
K 12.32477588927489 17.83385870195033 15.111520612280403
K 9.377773071121506 15.87418669420852 17.639966017485204
K 17.663042092555912 11.770896802973615 15.350878097967804
K 19.787748550736467 18.881314843370614 15.202420959524112
K 16.54390420850579 16.085413458963085 16.264015841418452
K 13.521439251484964 10.086011510645337 14.111895434227579
K 20.779732592474453 14.728149574723114 17.31400059387224
K 18.68461493400917 17.99237256981942 19.703897827954336
K 15.497348117170876 9.480208779244984 18.373803384421127
K 13.705190691526267 17.16352854491623 19.469064806244347
K 15.701803800917615 20.40786441135442 16.76312642198695
K 13.005979443343827 13.159411919699282 17.455358821225158
K 16.99308645026868 13.622562174037256 19.83744659595629
K 20.17401923213667 10.465828771700423 18.76733038035934
