25
Energy = -19.81304338 eV
K 13.688910149385041 17.417793895483186 8.600368170948858
K 17.871375756705127 18.801898210770915 9.46311072797325
K 16.724778944041393 14.441374767531247 10.184633654664824
K 14.577788728515232 21.456934034487496 10.767838614406127
K 11.185123791933632 18.73795678457351 12.149884197328706
K 14.960011903747544 10.625801371547938 12.334440686961713
K 18.11715494083565 20.84455319496697 13.594615319654453
K 12.324731518427098 14.30408760149285 11.89423818709223
K 15.970529730753121 14.112874016398981 14.601301511806703
K 19.682687892072295 16.496045894761966 13.551390503278467
K 15.297721310808617 17.74046136614582 12.79354585067403
K 19.3554350162865 11.91983687359094 13.285676911248574
K 12.22880394960931 11.833983242220828 15.781027558808786
K 16.528938628000805 10.23660377385381 16.769249373961674
K 12.291210632866449 16.378912819299952 15.953789384549761
K 14.016175756900726 20.46316543888978 15.924326590970391
K 19.589540231524666 14.071916475523503 17.315512150111083
K 17.509810555534287 18.055116389914854 17.156922928837538
K 15.15387903183503 14.029141316551714 18.621974292927064
K 11.008158571138829 13.998536257217046 19.67900026223811
K 13.405851561947486 10.152893327049826 20.065490894775664
K 13.939377374057358 18.03498531407648 19.75493592092318
K 17.600849661981368 11.390428784050433 21.053826626709206
K 17.96354644473149 15.97622866010814 21.183714480953352
K 14.32121811955997 13.792080392690162 22.832795401396336
