25
Energy = -19.41388186 eV
K 19.196349808460294 13.12281276146917 1.3426494076361997
K 1.5846295259138516 14.697277334663134 14.546243644773513
K 10.553997872346157 1.4695535012335028 0.42045685374589375
K 18.61886519787421 17.542541756385514 0.6884522740178806
K 0.026723760807966106 18.75229742752684 12.141687237876052
K 17.90792860757437 1.3702801052183262 18.771332941846858
K 16.6042112847939 0.22524517269730213 14.201014441443688
K 15.712108313736275 17.679089988765046 17.361902427195147
K 11.417522724334225 17.238174004173157 18.76033675090158
K 14.84263246306744 14.641490597553872 0.352238007605386
K 18.11805448666142 13.942003584566125 17.36709076281584
K -0.018067881176086206 14.580817490642339 10.329895113903763
K 19.07862512659762 11.397602802326842 13.6026147381258
K 13.530296167262398 13.998618858576055 16.16796763843545
K 17.033566119674656 15.758983344534139 13.419866799885105
K 13.282736270353348 1.2427894973186282 17.262648717819076
K 0.03995844347045664 2.4932972068218 14.975642397195081
K 17.516531685018062 1.8598807637365842 2.933229097461085
K 3.360988025726992 11.986437882740802 1.1344768160381093
K 16.17793179636603 4.538231753238604 16.359132438882053
K -0.009069876937426615 18.367307915961295 16.547448745739125
K 14.40336173503014 19.510264519239374 1.1217763444389377
K 14.525456503346792 4.012004450654764 0.36925834105943667
K 2.1828788985647933 15.409600803607328 19.0581866872712
K 1.1422676352076482 10.993881170425416 17.59493606796329
