25
Energy = -19.78187201 eV
K 15.611369619695555 13.674023715631368 9.319718019641712
K 14.00691889136208 15.957155833117392 12.74199275732733
K 15.808363478829556 18.593663641447844 9.949242222832426
K 11.776067632267058 12.20044626150303 12.170479354067695
K 15.323432982961325 9.065468442761508 10.522027616843404
K 18.83130583242958 15.898707446224249 12.073496525887354
K 19.39210101288089 11.177330132464157 10.69648768486026
K 17.05337584328065 19.536177094509064 14.31284542768632
K 18.41892314042094 8.456532142402446 14.157501839143796
K 12.445922418784502 20.116561634615973 13.301415894211711
K 9.896460491812887 15.94513609431947 14.403576900828229
K 13.718835041049347 8.883203095749174 14.845541351387768
K 16.186370045112223 12.330852071249877 13.54444367062699
K 17.156965140154757 15.541324916312593 16.137850511623167
K 13.514710741500918 17.575233829441956 16.73516927464646
K 9.82522769783814 20.062261977956403 17.215561007284087
K 20.463255260825754 12.531590653044583 15.183510265320189
K 14.053867768682347 21.964675378933634 17.366714799677904
K 10.135829971997726 15.928452856105984 18.992285261182296
K 16.719616516368955 11.250931883927606 17.843897790670717
K 17.12144043410406 18.96262550559681 19.156483331929277
K 12.805532246868777 13.107397198406321 16.46913299400131
K 14.873978208675485 14.88928220049663 20.112083692899628
K 19.576862813242695 14.675543899808876 19.51873972922231
K 12.904098923624035 19.296254248742773 20.850634230967227
