25
Energy = -19.6444598 eV
K 15.458783057993404 19.48197971808718 19.561117734601947
K 18.990048795636575 13.220181568800555 0.3539773971737513
K 12.13263282612234 1.0950196725486234 17.184172385036657
K 12.902844049254382 16.366177028304378 17.18857264138094
K 15.818733169420643 19.57955206529404 14.908583630370357
K 16.410450095907766 10.452779117573025 13.394915455014239
K 11.911806337736438 18.224913133154754 13.40059068521358
K 19.661189737820308 12.645423998843086 15.67289793798352
K 19.359025814731343 13.267642075087542 11.226542934467954
K 19.553182428210757 17.284660931454187 13.601860516237393
K 19.349376535455914 17.889757458319654 1.3314793230333548
K 3.1849063051333255 19.331789493967065 14.921905858711279
K 15.546069169168666 14.96177352083141 13.480413912247492
K 16.54278849847654 3.3269955326358387 17.51753095449295
K 15.638722866059517 19.5837156204851 3.886084018008474
K 18.253983821452934 2.4684627201333025 1.4911890309203082
K 17.860564412816412 15.253820753628718 4.463264869765227
K 19.933191338732303 0.231711940656166 17.883844125662247
K 13.760937701152434 2.9594468034594668 1.1489409799432113
K 14.912254137390267 15.306625779043713 1.0814342183501364
K 19.440129641076066 1.8354530253474926 13.896856540431989
K 2.996908755775976 14.553620092661417 13.413241340667629
K 15.29408112518595 12.3235705384983 17.499891009518063
K 17.514041924994373 16.24594524338972 17.470630943047432
K 1.8437694497359631 16.049487000678766 17.85059400308333
