25
Energy = -19.6740626 eV
K 18.212349078928096 15.287089346765617 17.72346204479932
K 0.9910735399405396 14.201442011916718 14.47323052086148
K 15.6885611537273 15.960611607359203 1.3137951457205428
K 15.565996364126283 2.9664630168513897 10.01774307805717
K 16.653491129907994 12.41432818489283 14.792267192277887
K 10.882709142287263 18.020505993416215 15.596442360599177
K 19.64396403473095 13.761161632769355 1.8646967927878322
K 15.570798339015164 18.53041654614239 16.661661821868552
K 16.404312444111028 11.611915982425005 19.52860427274643
K 13.407482700405183 15.367060842718328 13.135606382365332
K 15.572109876818887 0.40678379134859394 1.1133185827221237
K 17.622605365703162 16.6680006209869 12.966711380359433
K 18.16713061661957 1.1119909411520024 13.18652189871161
K 2.6356083627693887 15.540611154232378 18.563246275431304
K 18.01144988522318 2.184745887091389 17.75573149428681
K 3.7419602454009344 12.21308455874422 1.404968595354343
K 13.34869142603877 14.432497824557203 17.498086538368014
K 0.6576785066120198 18.792093981903378 15.947826030052095
K 12.806309992763106 1.8423043579000487 17.401875846588045
K 13.716235869888683 19.97253584422679 12.760081768635825
K 0.7601115507897012 11.265482842585827 18.128883526698985
K 19.62255916576659 18.62884925320299 0.4408940343649093
K 2.9802660904097342 16.415744019130333 2.9672943324109182
K 15.058000016420337 4.055557236318371 14.412848210453141
K 11.921913342628338 17.99209076239389 -0.011729632587435737
