25
Energy = -19.75359629 eV
K 15.017456242914506 12.735733666814033 9.184863044185759
K 18.617829373763872 15.639652911684884 10.41489006261333
K 14.247174116302205 17.21081229240626 10.54771652270287
K 17.70877238063171 20.275930429181464 10.780093632309278
K 11.370795963200422 13.610257489491852 11.86656160778468
K 18.376690567179246 10.645803289790454 11.844609762793455
K 10.069907755090453 18.03839333868202 12.661772997099098
K 13.921952646902737 9.554671932804261 12.572873834334752
K 21.35999714332588 18.204909297089085 12.956945369400358
K 13.885771784309641 20.591167680109983 13.682295511005393
K 15.786198189347495 13.648598515203803 13.370694825536921
K 17.216869322271762 17.757480156331564 14.26665518887001
K 12.556737146481806 11.99429802107719 16.06173468874243
K 13.14776691369047 16.28031544095839 15.186075794545935
K 16.720567947564927 10.114781106395265 16.239301405401793
K 15.222507907312297 18.753978705690677 18.23751876262376
K 8.89114113415638 14.672270742392161 16.12404365244079
K 19.816281867841525 17.48851309442813 17.720254206477794
K 19.95248294923001 14.051334492462146 14.701232582655836
K 9.573162937963735 11.023065513597084 19.07007072231488
K 12.63206866344442 7.797020980090432 17.190953048238494
K 10.750773741858605 19.1252194181849 17.153377481856012
K 16.496234666520035 14.31632908005922 18.064850250746872
K 12.08908313993278 15.046109230739964 19.49033521675185
K 14.069369814561695 10.920947490133404 20.107874144366757
