25
Energy = -17.70522214 eV
K 19.295337136198224 17.53213048584106 10.552423178271088
K 12.600409160249937 11.022747877229534 9.835487693481737
K 15.989476718814066 14.143970130161927 9.515946952063851
K 10.57239366307597 18.224291178586764 13.749074845713874
K 19.99961453802014 13.077282675678985 11.436716205682929
K 14.656129666844329 18.205882311347924 11.378186291805909
K 16.023780330045817 10.837564846240413 12.689082928258395
K 12.550559450598305 14.417131146424829 12.492578954174025
K 17.38172184985516 21.5751917837595 10.79413626252993
K 13.889741447043834 21.370660532227397 14.215621185641742
K 16.9519851829283 15.132738920309825 13.619320090506012
K 11.774708023914494 10.330824270262871 14.318629609578572
K 14.536728463679381 12.966461077358037 16.35797457427194
K 18.91990814912148 11.85841603764487 16.038756849692636
K 13.985764563167866 17.42301436322589 16.129240136846324
K 15.233553876830168 8.78729996008776 16.888024910307035
K 20.98633763028545 15.87453412943697 14.820689101359902
K 17.857547171799684 19.26265264013059 14.586459165668458
K 10.259328856335104 18.109742182377275 18.33549258566815
K 10.27898828361823 14.262638971596978 16.359868709458894
K 17.65979955308446 15.757881598397208 18.00591568015678
K 13.179897409318746 15.058751228367287 19.90567173564633
K 16.45147639384219 11.803590443338525 19.998890209759917
K 11.747494886434742 10.724599544349548 19.165830155005263
K 8.910763943439758 13.933448014163373 20.50342833699465
