25
Energy = -19.76977121 eV
K 17.455917031709706 13.728301515785098 8.957200468625548
K 13.854312154745735 16.426617260362196 8.116264145560203
K 13.182543197522868 12.261526243139173 9.866683611378297
K 17.98294467535614 18.17835636321423 10.176303996726885
K 16.640643205575095 11.205345064259067 12.811151925284305
K 15.001453448025286 15.604964504621222 12.170207649217344
K 19.57215411500074 14.98191574046979 13.082193408913264
K 10.622131939175496 15.667734367414267 11.712852331761294
K 16.680738288308135 19.08358817306974 14.567042058393035
K 12.403435981365318 12.542665269191552 14.57446350518224
K 19.686205171519486 11.68649691027981 16.519257192689192
K 20.86750820325237 19.27775188120263 14.095728498780867
K 15.526929603589334 10.263969958211165 17.3495156353227
K 18.80389857600272 20.703938785579023 18.40328523643115
K 12.570690297790698 17.60202918967154 15.475804172529736
K 9.261848097879476 15.22209144029533 16.561105501379128
K 20.05379387024281 16.340058864272333 17.504722408922614
K 16.23305218359698 14.447695686394406 16.028284863377905
K 15.706822228797197 17.60815648931564 18.765636157652978
K 15.333472745583382 20.56693250410601 21.879721888475945
K 11.495482739778305 18.134101187240823 19.971288448534608
K 18.839875536840193 17.65461025571488 21.93110761213329
K 12.896588377489909 13.853235771848077 19.01335235313428
K 17.46387234377832 13.476567671079174 20.344013928890615
K 14.574408754743088 16.192071670933196 22.833535768372755
