25
Energy = -19.78856335 eV
K 17.705522947904868 15.410387005800663 10.099358567789285
K 16.653201398127948 10.765120961228487 9.54935278710767
K 13.083939397338442 13.87159073718128 10.226982499202569
K 20.280279158214153 12.27812163236439 12.332433773144087
K 14.79986694273557 17.344953301506465 12.85500145123203
K 10.54088551940813 17.360755481838023 12.377651718107069
K 19.24931529222775 16.313095144958062 14.515621266497492
K 16.047206550199686 12.911692804040475 13.344088139456172
K 13.177110785281274 9.639532473043193 12.24929879976153
K 17.552513257244268 8.744755616329918 13.647935752316595
K 12.765984117777212 21.19261563697765 14.567522265981776
K 11.50771373094967 13.391832060320404 14.489246435334106
K 16.251295510175762 23.338902630144986 17.083068086099253
K 11.575286072329598 17.369374557618375 16.80922863406284
K 19.047472680941407 12.211086924718154 16.787137861676847
K 15.982492724657233 19.026377820528346 16.741345008049844
K 12.919464561342922 21.2735434095124 19.235946651211624
K 15.301110184537881 14.84843699951958 16.849336585701817
K 20.030287955699826 20.36058979831571 17.09423947002016
K 14.50832548463417 10.214092361854188 16.7769942097163
K 11.858828247824327 13.223433020342853 19.090613212677876
K 14.45855295282095 17.10428414493434 20.686989245920945
K 17.2302919578279 20.682807581271383 20.745834210890596
K 18.94750859557865 16.276648612239548 19.1244402970455
K 16.251145060255766 12.571570369446297 20.445934157031385
