26
Energy = -20.78614026 eV
K 13.606898838079799 17.046091300770087 8.99398111380849
K 15.938449642700272 13.97756847459089 10.997894786870587
K 18.141466381542863 16.650096240120984 8.109154695440335
K 16.25787145888599 20.775367655140258 8.306199281706974
K 11.34195816626361 13.234447212142575 11.355213322324092
K 20.037969783406147 15.876603127791858 12.07500340144253
K 12.49971250531193 16.658924683578146 13.642174075052282
K 20.105104097452404 20.081240653467166 10.598200629007467
K 16.2195695895498 18.906608650816967 12.137388984450752
K 16.677622860021387 15.715723691661688 15.097632826321098
K 18.526815008529937 11.714487140388744 14.394471461311563
K 13.977703592462996 11.864619195400433 14.737478314766381
K 10.04522638027242 13.634529201063087 16.179578605062236
K 15.926433032390143 8.75217524284828 17.09794900230639
K 19.33208582351941 19.31451443157284 15.392177501917361
K 10.522284468402642 18.1411652652714 17.41832598293942
K 14.776835954880486 19.602124457900718 16.664998722979387
K 20.809891871067098 15.137440425353821 16.669248880470565
K 13.728316005168107 15.163053263223429 18.027620601006515
K 12.520412663177757 11.005138429257032 19.25079304666058
K 17.431067602096434 12.820591858517119 18.643617137836248
K 10.360958809134345 14.766358350136999 20.82823330283968
K 17.70094164412557 17.38337559722851 19.329268364808414
K 13.320280558424379 18.453127757712757 21.049504051242877
K 16.235374002238505 9.848047575323067 21.551658506197988
K 14.757441102733594 14.275271960558985 22.25092524306854
