26
Energy = -20.40384608 eV
K 12.435397775798299 15.502884078128874 8.339325220910863
K 11.173250071441633 12.611236196147635 11.571463771042549
K 15.68252162754303 12.806468517879003 10.91347605831717
K 9.190773442125543 16.87061610823824 11.213272111081473
K 16.43228720451216 17.526305334455504 9.805360281391968
K 20.143258655856833 18.58008740073597 13.046321426121649
K 12.531982653667413 19.76345339978823 10.00435218429865
K 13.251278267133612 16.311508357935796 12.483361585283895
K 18.264174965134853 11.369936842452363 14.491218376748886
K 14.40141096740882 9.162407577701966 13.367583187063614
K 17.416281190970125 15.567783872327833 13.771690358184927
K 15.797958547760002 19.887041957572315 13.678112617639819
K 11.005860857979986 19.433078193931287 14.482656780492764
K 13.943858408862027 12.828432808465271 15.177643713763151
K 10.267741965058015 15.080632014205166 15.706004390276204
K 21.114086020369275 14.955521401886509 16.315384944142767
K 14.241111697893766 17.201447046731694 16.71274802836044
K 18.350495207177254 18.471241598000194 17.251599973026167
K 17.169284239908105 14.115216201624962 17.937734162847864
K 15.920700308267673 9.974689504099123 18.132967190057055
K 11.06737080764328 17.857758015892674 19.257656302020518
K 20.172525511249848 11.2267626559275 19.032200007038032
K 12.853016396865517 13.640048955708167 19.285418449826043
K 20.186276897936914 15.465644370210583 20.703480008164522
K 15.681772239542724 16.816493650555024 20.976501260738583
K 16.899232445875334 12.56721231338018 21.936375985142305
