26
Energy = -20.32238772 eV
K 14.270116677307211 17.971820018045015 2.4854201089658976
K 16.762171031548018 14.66053896742836 0.5702828975537324
K 17.19216786958621 19.37942149168253 21.436554208285717
K 12.263294584137208 15.025391547249463 21.908399662778088
K 12.692432384568423 19.17645814149467 20.266361449242044
K 20.09722316188987 16.321631338039566 19.795818141833593
K 0.5667280463087442 13.074149192962139 18.136127918045908
K 18.15369444365215 12.182145479323037 19.021959975460682
K 13.55844840364177 11.81738118619707 19.158324281011215
K 18.538636979399016 19.810642174962318 17.058510887236906
K 15.735606683098231 16.093012125240474 18.4083381323396
K 15.23516421297499 0.5542240852422546 18.669226827914468
K 11.404790831709638 15.683340884682712 17.37876109131272
K 13.735654683235449 19.338449648091242 15.74951361018802
K 17.26505155238005 16.617103486273475 14.100707533741547
K 15.390714517134091 12.489731041826737 15.193428489757203
K 19.788756081990194 12.641209304210953 14.643661427941344
K 12.992399443396378 15.553777681474456 12.882285448174391
K 21.629728391882352 16.786480570212056 15.558683770678307
K 16.5339517035175 0.5755479019157592 14.107035106659522
K 19.793097340480223 19.838279948586898 12.466262416644044
K 21.081954093187143 15.406915532678193 11.328380967398337
K 11.044480626095291 11.939932586625579 15.051571191607916
K 14.856845887820482 19.44203538932909 11.369115329607352
K 16.852097607658667 13.558340199591317 10.975168955995386
K 17.966587496122802 17.519210450870386 9.0592620400425
