26
Energy = -20.87928189 eV
K 18.598178966174643 13.471722736519443 8.461058666019186
K 16.984380549426138 17.841023732782027 10.68279748678232
K 14.010560356981351 13.948374706663053 9.223093851269669
K 16.220187610209866 9.909193311298859 10.104815436623035
K 12.888699917331127 11.437120106162334 13.024235419880604
K 20.40427471458406 10.837668771702436 11.831180413506495
K 9.941005675714425 18.40549782838649 15.09134554610588
K 13.522183587609621 16.485208618260366 12.95143207486114
K 20.942150235343362 15.43994749930496 11.954550415241714
K 9.854234927963708 14.70012396673601 11.777013225198353
K 16.996115752342728 13.638543232254824 12.493882901740118
K 14.710745821367787 20.56705900395306 14.038679575438877
K 16.970668030521047 9.668199619747543 14.74023039652308
K 18.043679034805393 17.656637620853893 15.09193195377121
K 10.690334659699001 13.995650980075377 16.221186887877053
K 15.282589713113358 13.776957296463586 16.239930824881945
K 19.840451096966987 13.547721604045059 16.145359512534167
K 13.087749861578644 10.275548723668534 17.559912149174032
K 13.645650506732002 17.466050522452225 17.30893248398021
K 11.799895383881854 21.259882326927368 18.39003732829255
K 16.368626600101503 20.591040131395843 18.433027703225367
K 17.24135563230498 11.415388499299151 19.33873075300481
K 9.74243785484519 17.275055247809572 19.53480756583095
K 17.53197291573173 16.100710170771915 19.463086800369226
K 13.242620901120878 14.071437470746542 20.41962077693188
K 13.6336152285354 18.412601806706164 21.67348538592253
