26
Energy = -20.02569942 eV
K 17.140129743373876 21.155036651488548 12.461982962692703
K 14.978431373783678 21.690763128024862 16.80788330893074
K 21.194434134818064 17.509338536621822 17.89539610700267
K 19.3620131417665 21.4934925225998 16.672390280352776
K 21.03858813342382 18.699912831639633 13.388327872178914
K 14.277235807361023 19.71603313582417 9.331411238669736
K 2.556911746464109 16.435080220896516 14.999897100670479
K 12.791332202185345 19.741698416554936 13.514420513992253
K 19.36055962772527 20.202049535469833 21.011143165633623
K 17.17903416922263 2.130689774792526 19.76753974626867
K 14.944502315740293 20.28528870050931 21.131227076699712
K 21.55524470785165 14.61145902172748 11.849145546939713
K 17.895970583619157 17.14071863090783 10.58863691572153
K 16.834933704323664 17.505600927535475 15.454898525998637
K 13.858022351137702 15.843111597388353 12.02141134908916
K 21.16418736478486 13.499628832596699 16.19710040048557
K 17.52983412533256 13.51480679649062 13.531998120370034
K 12.763725017060663 17.818319128175023 17.94851476936403
K 10.011587592725961 16.42061428036538 14.603344703808236
K 13.535658377299388 13.872659833871264 16.111323809779257
K 17.086906487233772 16.469924618091216 19.926604602565824
K 20.859851015607536 13.892015978293376 20.70898323674278
K 17.214033197393036 12.408242778731726 18.23931060952189
K 9.542719850136224 14.621070088411644 18.632412775922692
K 13.455374365876667 13.889062029890553 20.666911910020847
K 17.176599380676315 12.808742145645127 0.9297446140176416
