26
Energy = -20.50402218 eV
K 15.807217921001508 9.882273017016965 13.053545301747487
K 13.333728875675762 9.344755926453685 16.802472352318837
K 13.65583404229809 11.979659438117082 20.559238974045446
K 16.797559372546342 12.08398277688714 17.29120197263212
K 17.197928829586655 14.801208032370864 0.23444964486014716
K 19.7388181250666 12.508725441918846 13.827825324168169
K 20.285518751576344 14.945855806798106 17.752511892560516
K 16.080661669320193 18.788460993010595 1.883724618669509
K 17.58292006417858 12.398068289424701 9.698372448508737
K 13.186545433459687 12.669123924193594 9.355407948566901
K 11.693581380100758 11.380747450377692 13.18157254414989
K 12.395445175390345 14.046337603163003 16.68308889891357
K 1.8551518436569763 15.720692103715187 14.184427316289518
K 15.68175280197737 14.444817142690338 13.443831673076504
K 12.902112781845966 16.463873785009376 20.547283772380574
K 16.03876567343349 16.876919140638844 17.309139234082483
K 19.120789609254512 16.438292390830085 11.2552379972685
K 19.45017243712474 18.6613757809134 14.991956472283187
K 19.218792033732228 19.069397027761223 19.64866986906434
K 17.28030354426432 1.9074439947961017 -0.01830524671617157
K 11.762013911710811 16.07142367394784 12.327865780026093
K 15.302864239084476 16.449906413460294 9.059672284831118
K 12.163096198124194 18.6988224627221 16.088156046484542
K 13.479390842072126 20.82862780933677 19.815032758290076
K 15.353479780509717 19.062791070335066 12.839494442329821
K 16.429055560532056 0.5889837257560789 16.63435036097347
