26
Energy = -20.58128427 eV
K 13.519852775530108 8.975716206785886 9.97435805452273
K 10.508045088543167 11.996107464013562 9.106673796514178
K 17.744104559285073 18.097263204271187 10.387737264819984
K 19.203220956233533 13.774081155032821 11.386400881679842
K 14.558786180192795 13.63012722703309 9.467503231285342
K 11.375075596860986 14.787348624984038 12.286570456733696
K 19.913265356182368 17.279737784515408 14.535704031748212
K 13.31466485600848 18.554238413143562 10.974642948343748
K 7.8759896222634165 12.236983922329738 12.55400597208701
K 11.734486655052406 10.449505394154947 13.71853133296343
K 15.768652414345912 15.69951755033245 13.13597915692724
K 16.017300611431324 10.952220981860675 12.858698988614163
K 16.190133320035752 20.1119313419822 14.20308978568694
K 9.781328951913714 14.252577963170467 16.43938328283244
K 16.558633521615537 16.906856655175098 17.21993781202206
K 12.232664435627164 18.0823696412192 15.400459072369904
K 19.159627444093175 20.28139970147605 17.983833415426336
K 14.73858719645602 20.569152487539302 18.57166006559332
K 13.99959378459182 13.538061001213556 16.034031263014636
K 20.521127873274438 16.043752305410496 18.936716260872043
K 15.785846602069784 9.798429879276735 17.17030641795952
K 18.79187859110265 12.997275581369578 15.856301448086978
K 12.309234370911907 11.687770484686101 19.380400907209566
K 17.133488815560654 17.809971277282987 21.324732122992213
K 12.848410603064693 16.229043091139825 19.450078771028924
K 16.602150810912413 13.444711653760486 19.828414251825496
