26
Energy = -20.63592961 eV
K 16.237894485132458 14.492270345633944 8.574393969812439
K 20.483437387144978 14.912850003227017 10.490243567808545
K 13.086429795526758 12.740510189646654 12.304087559422067
K 17.91829556809536 18.677138503841082 9.841615948181463
K 14.533665246207702 21.695572142495706 10.273367639112967
K 13.339684335470412 17.417745362306306 10.674487246433952
K 17.578895844913966 11.332333487934232 11.77820752579588
K 16.626137626386644 15.484690581072563 12.799964433421534
K 20.358282518260513 18.041203542895328 13.866695894568146
K 15.677687088064918 12.026153061636297 15.889403103167083
K 16.075107914950532 19.84270230328079 14.0067994671231
K 20.138716437698257 13.50315454029629 15.076127894242427
K 11.730135006972272 20.37785435308114 13.957030014459857
K 18.556923488961775 20.376801976232127 17.737045972366346
K 17.047971984212193 16.359628466152188 16.8148572008018
K 11.313256079859382 12.071117872301416 16.831661120826062
K 13.93392119265076 19.33856359264897 18.123824355142126
K 12.507678458724858 16.139332488176525 15.071767753155937
K 21.130057349067016 16.64405702039576 18.37013437913735
K 13.830822600384339 14.863657658574642 19.244409938893213
K 18.224517101077097 13.126893821469176 19.80839082865752
K 17.211280681334355 17.393264766195234 21.29397542158479
K 14.349605939984572 10.598352409885782 20.29059253203605
K 10.992127766182442 13.066516821794323 21.966676985087883
K 12.865186089652882 17.165111843337222 22.7921544338228
K 15.558967217894981 13.619208050300504 23.428770019750598
