27
Energy = -21.15907546 eV
K 15.890277654658904 1.2519797209285342 21.3346709027998
K 17.356425969129912 1.239048529536057 16.820731382141798
K 13.884588019605234 20.2270552804557 18.39308437311507
K 18.09554587919886 18.824367863789924 10.49818237769366
K 18.42342628674198 1.2516045622682905 12.326419650667843
K 15.408880988926908 19.910740506246352 13.930339828356836
K 13.510844334655182 18.073610893579144 10.264822986689309
K 14.81943993587623 18.768202955434134 1.0421387642925888
K 11.883468601461457 17.525146720578547 15.258422457654115
K 12.651791392695962 15.95746785729732 19.649971641388387
K 18.39399218911322 19.50128332184698 19.537446755106096
K 10.974484367231478 14.621956283360067 12.107006496549172
K 19.758282471224582 19.476929269697703 14.980663684115587
K 16.241408329074236 16.568764038681962 16.82825967716793
K 17.383041054184005 15.428630708454662 21.162258908547948
K 13.756673546529488 14.296374272895417 2.04594606953863
K 12.62956819766911 13.179382366299958 16.042635369954
K 15.527010325000795 15.118169752045603 12.66403797475676
K 18.052528625080818 14.804464368959644 8.711852752917006
K 19.893896495868084 15.533110612006833 13.01425322286339
K 20.587038898988087 15.722030826239488 17.5720814664734
K 14.817236776314516 11.925276648931012 19.91845253453971
K 17.342613547338452 11.5794881618917 1.99871726522484
K 17.065258803495507 12.312243011198127 15.89038574599011
K 19.53979682742431 11.739796198596277 19.677033205383967
K 18.40256291783388 11.424816844867085 11.581608329005961
K -0.33958315915997384 11.911855403224928 15.22983257202566
