27
Energy = -20.56720391 eV
K 19.07475501293685 14.56773931926068 11.740039725095755
K 14.875475283879172 12.879683226746666 11.163219313151052
K 15.763328389271205 17.837499719551936 11.484659051253823
K 12.234617637167608 20.764658053703684 12.6450000015159
K 18.286425745604912 10.140338057992617 10.329900988601075
K 19.053382640280905 18.39161290458071 14.51671964876208
K 21.662375802272656 11.141661062890618 13.084461777243536
K 11.90226583294857 16.171729891738465 13.52927110433528
K 15.993161583929101 15.007096154700342 14.8132236640515
K 12.901892202312771 11.907121549271045 15.20008146931335
K 14.606731688020815 19.020724277089556 15.691294185799112
K 14.707539455752675 8.527005192526213 12.525592264088102
K 16.43451283071221 22.200411044117875 13.515587975277334
K 17.665258058654942 10.826934916371613 14.619806463416984
K 14.778323688953991 8.454035925148665 17.159581994649674
K 20.971171227369766 18.483957833744665 18.57009861202843
K 17.47513824114788 21.495916172191315 17.981502789355737
K 13.301899738616422 23.10052372428536 16.619451382559415
K 17.100229303318397 16.90248093813372 18.546100906876536
K 16.34758839461324 12.614942727221006 18.566901582542222
K 10.461513697588982 19.653592257474898 16.68141371257087
K 12.61171275396678 15.62146333995151 17.870070316410327
K 20.198614425527662 14.43231578072507 16.229063851130523
K 12.404361532964755 11.584828925614252 19.73037921535628
K 13.602862342274655 19.790696237040308 19.983720252203767
K 17.542321400180672 19.410850404213537 21.95239506174298
K 14.566859132661726 15.59449840664247 21.774780733598035
