27
Energy = -21.01671716 eV
K 18.264679474987826 0.5683554131327045 17.788068315827644
K 19.069353605453333 0.08149467545969587 13.30537191694401
K 19.106783047784774 18.174133365711185 19.691925423919272
K 0.43693949456300213 19.00065731555236 16.03589417780112
K 14.853313185391766 0.05217589821588202 15.107321832209577
K 11.791685165022596 17.78092569215573 11.1874772928375
K 15.934462690492 18.552855741968926 11.56667502561734
K 14.92380127639207 19.05526857271012 19.002464523509257
K 17.687881000762786 18.132488309351224 15.516347015034292
K 20.044848166142877 17.181705640023974 11.89517637775904
K 10.810854996384245 20.363303454845667 14.390591618994138
K 10.652974259006244 18.698814787217643 18.21770476057893
K 1.4133553549134872 15.765115729986235 18.905392242303446
K 13.555920063908989 16.91237402671979 15.2297183465641
K 20.70287686011544 15.751109508547836 1.537426065814818
K 20.418147118394533 14.653359104422766 15.314724243091115
K 0.9420589733302679 11.510886330146937 17.593777529611646
K 16.549838664360678 14.942093468248183 17.71535385886818
K 9.42187166640006 16.013899980856966 14.68064607461582
K 12.52329586562209 13.774885070139398 12.11478261729899
K 12.427031601555043 15.130011364160396 19.294314105520296
K 16.213645726147167 15.62212500002432 0.6829076861600581
K 16.687770147464946 14.35759709627926 13.158946178243516
K 17.913110554957605 11.038247733745754 16.2981171971145
K 19.259708780363642 12.838944031921612 20.206409443874897
K 13.433810489145118 12.3995969576294 15.900105042835676
K 15.043878650380544 11.593081379512101 19.967417191771712
