27
Energy = -15.45543461 eV
K 15.869428490857617 18.454916464864162 8.884863796089823
K 12.021322325099458 15.624315767415949 10.388751998120554
K 16.756621521242657 14.19854373689741 10.820943235134186
K 10.68317973365979 16.9278609610123 14.513212482791895
K 19.22476448011195 18.060696266437315 11.906241021405972
K 12.198118811279148 20.22386525439562 11.054998284635696
K 20.626243801757024 13.072357207153622 12.813555426975835
K 16.332383253575696 21.7048403934715 12.048882545798673
K 14.94927938717163 17.60790613387066 12.999406666476277
K 9.501815022101418 12.540518422543089 13.805789386716109
K 16.912315138629392 10.68298736421466 13.938542359531866
K 13.588232051549806 13.462587755945354 13.881855831685831
K 20.240165702861688 22.195428790455352 13.648969271538329
K 19.659724526643778 11.708482261076202 17.413905247872876
K 17.84451900887617 15.107430075739227 15.097436887372785
K 12.359733099900657 9.702507045431071 16.215437710390063
K 17.84402402035778 19.429951972052336 16.20485588049091
K 14.105358920878416 16.712031893701546 17.202824752050542
K 11.011659404270535 13.688757016294389 17.840222884240152
K 13.473286370077279 20.79792784993883 15.59562716357123
K 15.38117298344493 12.542566405552723 17.767153612631386
K 16.582300461395974 8.45635842430812 18.239302295942505
K 15.253846554818828 19.46764566543883 20.036543418432707
K 18.12225803079397 15.91496653277816 19.331951281669966
K 13.071854196906935 10.355054268711815 20.67957367358497
K 14.072944889075032 14.843886926073948 21.251987963070597
K 17.344703170413084 11.546864501975927 21.4484202795289
