27
Energy = -21.47410881 eV
K 0.17025424306057554 11.984043339852676 17.210614880330073
K 18.4186171360729 15.20388368761267 19.64273731086717
K 20.3961673545826 9.756388412412424 13.348853450048713
K 17.5125895800828 13.771761413364688 15.2317377457495
K 16.235520054049804 9.289594502270427 14.841233278004177
K 16.671512680304804 11.149631906856314 18.93357012938345
K 16.28236741252421 18.487569162919026 1.1177174938286438
K 13.16375147757387 12.789270823650742 16.35350572674949
K 0.6100683079108647 14.115901415052674 12.99215030864274
K 0.7533960768374318 16.539680445257666 16.854358630998668
K 0.01522846035247949 11.908924172514766 9.221799971212597
K 16.867291047615847 11.493929239964764 11.100944164893923
K 13.89251726433486 14.535953815995784 20.572789777894272
K 12.660233165826048 10.796678795713778 12.279391683749747
K 18.566892906527038 19.703502671770266 18.18388793337519
K 18.443026158672318 18.06023621493468 13.926074576338218
K 14.853475315946497 17.387889567044756 17.172639456184026
K 18.222299813544826 15.63562572086688 10.006917470590034
K 14.472299455041169 15.231097392743084 12.590713809960736
K 11.920866281797052 18.578350468529344 0.3576255302251148
K 10.40766988497524 16.389193796056976 17.518216348776164
K 14.83771586674598 1.2322365213671007 19.6638056439388
K 10.09036010583185 14.436912270389874 13.404205200783505
K 15.362300268135662 0.7105424879052533 15.175555632615449
K 11.962386396289695 18.616520348710885 13.74461173676654
K 15.56702806837102 19.48442972897994 10.950801837878593
K 11.20701080751751 0.21022793710112855 17.422024084295927
