28
Energy = -19.12584033 eV
K 19.542313115483278 18.87833282120553 13.797039322898812
K 17.512631011725222 16.641857587796736 10.102259085815412
K 14.092651597579135 15.174452311972848 16.183040192882768
K 17.2032600468253 18.25164406955324 17.500443952802687
K 16.3331910534093 21.036409304593676 10.60678418911388
K 13.152639362265546 17.813361586723904 9.439353458213514
K 17.859021310726078 11.990471941200573 11.025867162317779
K 15.143521857893873 13.885142854407261 7.624953313924605
K 14.099173637185652 14.002242773270781 11.855887574697787
K 14.018202847487625 16.39593467382224 20.551325158507556
K 12.805667977301516 19.334056747739417 17.11504498239351
K 18.230941657723424 14.834349783983257 14.27356716264022
K 12.20727827269241 21.14697526226947 12.554771655321716
K 11.229367170393154 12.318318284860439 14.94155910434871
K 15.76320180042105 11.15365493732284 15.218226640900886
K 15.165483623975545 18.14884617016716 13.413256481559785
K 15.91401899065364 21.971253566849807 15.186583450528067
K 20.933889976610658 16.067185375359298 17.53740060802574
K 20.0927824267494 11.388336937806951 16.54272698732273
K 10.847995562346368 16.933637805201837 13.385985287611033
K 15.69979980174621 20.429597223448916 20.85261239608109
K 17.25942343936529 13.862801425909351 18.664996890519166
K 13.291359449875745 11.956801220225685 19.253657752097077
K 10.29164846494315 15.529419743858748 17.965081985463836
K 18.280651018008978 16.710932083661408 21.82583422761383
K 17.23316277015795 9.627213641171698 19.641266645875316
K 20.45825613623009 12.626215931051657 21.053128185290383
K 16.156567811154975 12.708656125496184 22.705448336162483
