28
Energy = -22.29214051 eV
K 16.643634491632632 18.367809898019473 8.822955279445223
K 12.664085894408815 18.733521127107135 10.997082299262175
K 20.027357353803207 19.472955199174518 11.637478369070147
K 14.262549889387442 14.214784668749921 10.868016977093479
K 18.903544146468242 14.946790168873708 10.919349290453704
K 16.524923352520062 13.65047953174354 14.522578677761972
K 16.23522897371013 17.699767615802212 12.967337930055098
K 16.74149697082009 10.112190203177448 12.199304429884728
K 12.879393997366815 11.251748927548281 14.327792042411888
K 15.972031165131071 21.9078084276052 11.903016988913867
K 20.29558032991928 11.82900124221377 14.49826927309
K 13.257958714457837 20.048783495962574 15.391073620369317
K 12.05728268001019 15.732822923360967 14.513760252663857
K 20.055145821285226 16.50125004614265 15.158924430115484
K 18.163085734779813 20.679150815792312 15.61415832647777
K 15.265466410776696 23.98709007182389 16.10208304400529
K 16.695713825520457 9.58708612425299 16.744164120371963
K 15.967291131406617 16.948093484417697 17.126560475397586
K 10.111352272095033 12.909263266185611 17.623478386505184
K 14.31488567782964 13.110462421368988 18.101333064379823
K 18.81825370021488 13.492299890987411 18.517194752372696
K 12.02350096277894 17.026129688198868 18.8563710287908
K 12.641141218737566 9.31013361235542 18.941938762743174
K 19.346875254062823 18.073377608808435 19.379212411659374
K 15.242171334519494 20.618394148839815 19.280280817353805
K 16.323308385914732 10.86707775306607 21.266220151088906
K 15.81235220496779 15.54017119341036 21.372171520683608
K 12.168246783678137 12.79541512321475 21.76175195578379
