28
Energy = -22.4315052 eV
K 14.392379680312033 9.415557908081524 11.89740800761465
K 16.790513041880036 12.300127562284546 8.948328139559283
K 12.301283498742345 13.057475141646272 9.32984599959805
K 15.647243477145953 16.761003918533618 9.31711768793102
K 10.091944001011042 9.352136282157563 10.824318619292432
K 19.34714451284192 15.713491168815521 11.628545809354241
K 19.198752380235764 20.7124976102509 11.917178180437594
K 11.187664146046606 8.61485786881429 15.263375796937378
K 17.15810161307778 22.033508611661254 16.026542788643045
K 15.128675996876567 13.810612028600252 12.664963516691282
K 18.476687933771593 10.95818261917262 13.215863509071118
K 11.906518500244752 17.11746102176764 12.410532736442276
K 10.830751493630029 12.780463369006602 13.726898594971667
K 16.04722790443683 18.28548373019484 13.62337636738722
K 12.76544881494305 19.99025023963012 16.357642757329312
K 18.27776154551489 14.628601828309302 15.88166944521546
K 13.81385552088639 15.460357399116848 16.369345770164077
K 16.75862277956139 18.250087860987936 18.252561355224188
K 20.3424822977366 18.641034616402475 15.648867944314777
K 9.656485965527857 16.508831128851373 16.400917026033234
K 15.004534582118334 10.946437745083042 16.34791903185362
K 14.892652837063466 21.614293771084064 20.158134644801606
K 20.00356463191515 15.910778773965655 19.98021740836138
K 19.22356848088075 11.216549702947706 18.25766621005109
K 12.673143197942027 17.273239888055272 20.193799556660448
K 15.865655233241236 13.862944838577066 20.056184268561463
K 11.201316580386376 12.437569792433491 18.267827509371912
K 16.574705762994167 17.90484998453344 22.591637729090717
