28
Energy = -22.34120273 eV
K 17.699134714088952 20.463608794158816 10.631544265342042
K 19.558961930638123 16.18598113544275 11.371844451267966
K 10.931938918539272 17.392840971826473 14.583142535229678
K 16.523495666773034 12.397379087954064 11.762247787000973
K 9.055430886893987 13.360179915268668 15.770910925132293
K 21.893259508131727 19.94708152022875 12.534629605967275
K 15.015322829781352 16.809599993992187 12.108720628371186
K 18.64582103826477 23.071122280262806 14.095728277717082
K 14.415667857067973 21.08943968211646 13.634406233631264
K 21.80111447083184 15.927492656362391 15.872394839406667
K 18.293928377196682 18.808144927509666 14.571755354620116
K 25.055600156067175 18.672190772014606 15.65494975025932
K 17.79827121679789 14.423448771436203 15.142551725588914
K 13.228977386472831 13.505310256992395 14.695374306459241
K 16.011364678745714 10.440349411485167 16.277316208042798
K 21.3206320738842 20.740670862758403 16.855446098314875
K 14.760810259375308 17.426924849546303 16.499973065699233
K 11.166168596425324 15.726087827531014 18.786129704215632
K 12.163460028254848 20.295684919407098 18.035114910013323
K 15.264610455806551 13.909058692654614 18.783487219731793
K 19.552505798733577 12.649649944473525 18.701595803690537
K 15.846388071113449 10.25369302012608 20.920487892487557
K 16.750937794435693 21.102137551755696 18.07043912030917
K 18.677467310843397 17.099650673647222 18.949199391761784
K 11.92863389263597 11.040890092635609 18.40186780115381
K 12.788203243866333 13.435568288782003 22.25424292570549
K 17.395290102989964 14.29561221927979 22.427027696175465
K 14.778155588713009 17.851753733720955 20.929024330072373
