28
Energy = -22.18671622 eV
K 16.037563633653026 19.133340099332607 8.405333532439329
K 18.556885795763225 12.178776123486902 10.764159080412147
K 19.364406281318264 16.68063422166343 10.502093114669211
K 15.052750804606942 15.189595194071682 10.148167994496761
K 16.372983503775245 19.10477488120479 12.872608124236734
K 12.309180733631205 18.55828661052949 10.968890463841838
K 17.504966530816823 14.80998078085628 13.908396401883968
K 21.649093836667678 13.77955180121265 13.51699095662069
K 18.57977971190572 10.932951902068945 15.41082203529804
K 10.89989793372711 14.265055644557135 11.339800661350377
K 20.344186057441576 17.98145986725499 14.892701458254024
K 14.39245276471722 11.869939822966735 13.220098980091388
K 13.185602237666776 20.12971456354392 16.19872261978469
K 13.259127586239359 16.081355070516064 14.418696935478776
K 11.008925144278416 12.899749977091338 16.079050254416256
K 17.587320608640624 21.39750085887122 16.510635300402843
K 16.513530793638534 17.327901500504737 17.143654469142863
K 15.245265028743296 13.030934999846512 17.593567420447584
K 19.874112796473547 14.444588148285941 17.878544628915535
K 12.536650893959841 16.49679784175193 18.995103102491274
K 19.78213255193578 18.563600733146288 19.84144841071047
K 11.076036804105197 20.36373660817405 20.456941668344967
K 15.471056339525513 19.93352055659197 20.346675156365613
K 18.22304645191477 11.520505585751982 20.769979682098672
K 16.41363836320179 15.427675786453591 21.231047975906506
K 20.65181316525558 14.983815943249011 22.393153121668654
K 13.426814531183847 17.951707394552457 23.50894722599083
K 17.99928238008214 18.281050747332394 24.002272489109917
