28
Energy = -22.05630442 eV
K 20.336415061639848 19.951709869118005 16.287895248035024
K 17.715776703479854 20.313852377642384 12.570257979507051
K 1.4727725784986654 20.68964975446562 12.174738021139703
K 18.478364403090556 19.406231844175093 20.51383197063144
K 15.74530304300609 16.644532516020774 10.362008806365917
K 19.927897793625323 18.06547265795315 9.175601230832864
K 15.865079080413754 20.303201035878356 16.962881461562397
K 19.750900252541257 15.885295669678964 17.9221815146351
K 13.25673228846439 19.532299600789493 13.301663138401292
K -0.05163067890942694 16.535688070399107 13.314465833735118
K 11.839214697008758 17.54451037880984 17.335805613378536
K 14.017237899855465 20.527187144909046 0.3493117484049418
K 15.378211611270842 16.244216407421103 19.522986234585876
K 16.252486981978343 16.267687025125504 14.835800644525529
K 19.20326284895289 13.554633352409287 10.130219902286957
K 19.014293091076194 12.552001489031953 14.719674304173935
K 8.894949536953423 18.228779634041427 13.692731378116063
K 11.834877401591614 17.000478524815087 1.676324666977706
K 17.15480130478986 12.181028809900665 18.85537976910255
K 11.860702507012183 15.224101144069012 12.581373697098778
K 14.39345096448619 12.965644156027086 1.6723286988007373
K 15.172964242364875 12.31890891591471 12.164833777150337
K 8.909338036086172 14.072264868254456 15.85952170640422
K 18.366291468522867 9.27885768519826 11.458648212963805
K 13.467280335130642 13.15399207373228 16.41809894913357
K 15.8813695977672 9.23184654554728 15.515539639954419
K 13.292916281970191 9.637398888277936 19.21965848691295
K 10.737411364164938 13.501357979570205 19.930840536612234
