28
Energy = -22.43112175 eV
K 9.695385999056578 15.67527216872424 18.32587366571465
K 16.262771196879974 20.82392580897046 14.181321904381553
K 19.33419815062306 10.77590521408285 16.882869782462617
K 19.184106445148267 17.18390145204277 13.176582264088813
K 12.427719943498339 18.958449101215724 16.2534225225678
K 12.162544895733163 12.218870708015112 20.042501791905252
K 14.724704124085951 10.325248171031042 16.832270055228555
K 18.49908215178086 18.026765730214038 20.714711527569516
K 20.450463873668745 15.551189080856473 17.533756232074758
K 16.608691708160258 17.465479572574054 16.878917081833876
K 19.93635513302859 20.222259009885743 16.74845876355484
K 13.419439064672197 10.273593945776296 9.423133212384487
K 10.201556464399934 15.528169810299323 13.771047658258123
K 16.76154215890308 14.097060405571563 10.436296480846144
K 13.404777950605583 14.617445885140961 16.71980179983976
K 16.903049567838764 18.803548811119285 9.895636644513985
K 10.149654519544796 11.36059723858996 16.070252981247716
K 16.57701213276833 9.653518780658416 12.775703286352947
K 13.331520694008855 12.457842843115692 13.054976969298119
K 15.781339753083344 21.16348630902797 18.82756856052437
K 16.790812319728047 13.672344946330032 19.442011038034057
K 12.337124764493593 14.709590419102883 9.546261250714911
K 9.484673052816493 11.456599630948215 11.490816621201537
K 14.398184046251785 16.934295324625012 12.898366090941957
K 13.940250152212004 17.248298710250648 20.378393309114255
K 12.236595316789124 8.283041896979165 13.280368732692533
K 20.162686059961228 21.317320921224304 12.135631740130899
K 17.29347782709926 13.655697570467972 14.742767499363014
