28
Energy = -22.08548367 eV
K 19.34841575714294 -0.15981949373610785 12.071115618473263
K 17.88790791037266 0.5274437897213535 16.41348058535395
K 14.99658692761571 21.54483694479789 11.825922427740132
K 16.83764868082616 17.802554583735397 10.225706656497113
K 20.302408680003193 20.83141001653472 19.926227875843523
K 21.199550424529495 17.901689947330254 11.35616879756503
K 21.54228479050229 19.561289398629796 15.700320693919576
K 13.51386209985695 21.42092710626808 15.903388089547894
K 16.38433976063733 18.818381686890053 19.025237629587412
K 14.10454174770777 0.291895908723124 20.289694201927308
K 12.970751510181476 17.54063391423337 13.585890306098257
K 19.57182179992317 13.934632091533658 10.052793865215747
K 16.070471549768847 14.234851060562365 12.982698305914452
K 17.360306611961928 18.359480427879067 14.613996185370544
K 12.030075989479494 18.05790481339915 18.288937823145165
K 12.147775476010901 13.878201961397092 16.46484140130898
K 20.43539637057934 14.999196592759073 14.62142546583002
K 16.216767923213137 14.868349272017127 17.488770702984
K 20.35624925279004 16.433713567589955 18.95365600608366
K 18.23253128439709 17.902471099002025 0.9727443823838141
K 19.3483036721005 10.8121493113255 13.191780565959595
K 13.69439372447978 18.696947243760572 1.0527717995773402
K 15.353555608700743 10.660938960810459 15.689853628975015
K 13.35132158764285 14.804389369450982 20.976062361308088
K 19.336779915614883 11.701492210125004 17.79609398168752
K 17.93284665138073 13.569072470873971 21.69908471800966
K 14.972812314446633 10.829932101816814 20.050700188084594
K 15.323368861166315 14.964161037325905 2.985777845104051
