28
Energy = -22.13406634 eV
K 14.671271651658943 17.23993010000119 9.419160575593173
K 18.82537502393225 17.78658092194379 10.675002506481487
K 18.105973149257192 13.834612189273912 8.627189299043248
K 16.421434368390255 21.44865370773751 10.241474934316365
K 15.937180075301457 14.312181685592925 12.29292150912747
K 14.762194430686067 19.0255286957131 13.480727433037435
K 17.795520854803158 10.457234907421633 11.687406300481452
K 18.460129956992123 16.780057067136386 14.953946868863921
K 11.836394619706345 15.74129512378929 13.16765891836144
K 20.67701461645238 13.856529169981927 12.282763368616749
K 22.333121333867584 18.032019974612272 13.459569358456404
K 18.849762141703273 21.022643419325618 14.004712616997761
K 18.097774063561115 12.360569344227011 15.757726263977178
K 13.747645464996964 11.336254680389175 14.944268607776008
K 10.770944021210038 14.121000341553975 17.758991346891513
K 14.739976736440498 15.477917266565886 16.309201821425198
K 21.862136543797188 14.72749407929201 16.66400521983903
K 11.37294473813997 9.725544743922514 18.811872705171055
K 11.764606977259675 18.544777320565487 16.967746786928675
K 20.726078847411067 19.008604989447754 17.78609138718459
K 16.091141775394853 19.669142726966697 17.74053695901426
K 12.641509546766507 20.774610483232255 20.716285774076077
K 14.769737807764251 12.212850397400823 19.33421264169129
K 18.097135390609488 15.503067283822965 19.290402158699433
K 9.702615559254816 17.128245485096986 21.05162785761234
K 11.15355381708619 12.977814456877226 21.963391080172325
K 13.815947868137645 16.55906512209233 20.55965761514825
K 15.317315118988928 13.68221081558756 23.39788458458625
