28
Energy = -22.25268743 eV
K 16.62204523765248 16.351550832162904 8.53159776440523
K 15.731260480028208 19.78837691893831 11.137787966073914
K 19.503020853414387 13.193378412599444 9.6260739770289
K 12.491580196314013 16.73086856954273 10.069534613995563
K 14.924493830987268 13.022261420929395 11.13949651001282
K 20.33128838462421 17.51255431225255 11.065002314429595
K 11.220617044176423 13.886151437045767 13.746744367838158
K 18.263647343558304 14.822560538781298 13.436647118037557
K 14.575047344813006 16.745019705101047 13.80372136938874
K 13.084636591643509 9.683969624518538 13.785671387435697
K 10.626773538846772 18.380154287629722 14.668210234395474
K 18.231654947692082 10.474827172970224 13.076491886747249
K 18.1961958425701 19.336565943483457 14.679920865393237
K 22.137954137114185 13.159552646843158 13.257993372309194
K 21.279705504160155 16.404437188729215 16.169827000871873
K 15.1700291224704 12.518601340248816 15.836180455122271
K 14.422257676928524 19.863993104606006 17.19159471190067
K 16.94620596307188 16.009314391962743 17.58707041005264
K 19.476165786926018 12.454312437808804 17.24006128326692
K 12.569351231366351 15.822303350805775 17.679416191346125
K 8.324860853822077 15.622597022276276 17.490841674733154
K 18.52624977177639 19.394043777958583 19.272224279611248
K 11.114547684298039 11.777689830362734 17.871120693509635
K 10.52949581462392 19.068870442528688 19.47259853277605
K 18.49462989359509 15.206023142377418 21.530776831048833
K 14.429165420073794 17.411081111763178 21.39832233625337
K 14.814125735026277 13.139114643436024 20.498972661334363
K 10.609581420823448 14.866414044732965 21.382686843077796
