28
Energy = -22.38832496 eV
K 12.758105050873864 22.181879277215568 18.035138791652702
K 11.643072098280674 18.915661677106442 14.367064856721203
K 19.397400935957883 19.567791734285482 13.273742191578174
K 11.899617397751031 18.1849427287381 9.34733854610668
K 9.949679944937232 14.860730123931102 16.418819686183745
K 12.332454873669453 17.974135413922788 19.092187424430367
K 14.398563654240618 16.489762523986823 22.830019891780562
K 17.633395319479632 11.184783551463658 9.431180467317974
K 19.655786984532998 19.053957134807106 18.187867371491926
K 18.932512947430816 17.213526190805535 22.34669447633041
K 15.798150520455604 13.232892605114777 12.630548417186713
K 14.025207179452652 15.527099076798441 15.701045847983345
K 15.748880009691645 19.676700575390374 16.09787015617208
K 17.371469689202826 13.024393634203909 21.73744925796128
K 12.624480888677054 11.350976679576702 15.156779880830143
K 15.330681400194752 17.781232201183762 11.998961452138346
K 18.39726423490005 15.97623501474048 15.035500410819006
K 11.606308211554209 14.714033000125283 11.97047575618851
K 16.676736333288225 11.958250176647873 17.07067491696951
K 19.861575267227547 12.065916997287292 13.850945832347723
K 16.455361790409835 16.221539596907373 19.065287783204933
K 15.91632061502951 20.313651709497396 20.72920852284137
K 13.066939094338373 13.32394379302805 19.415315549680468
K 20.34413293884861 14.23209099509249 18.494100341316198
K 13.123252353620364 10.73552598199062 10.39838006563072
K 16.492803304165644 9.063704582626452 13.226892554425904
K 14.682745425072413 14.672406045886037 8.573949150148268
K 18.864433660654978 15.489569101578388 10.503892524499708
