29
Energy = -23.22353888 eV
K 16.904028840651357 11.087664480163957 19.08447366715475
K 20.63599518537709 10.866895850922761 0.5769007641603034
K 13.321959786312501 11.71448677433297 16.427140936040566
K 18.345408849996765 14.719743967584806 0.3804851028768939
K 14.598182936829778 15.362064655877532 18.958235883096897
K 9.777872785212235 12.384356829512956 13.861703594747777
K 10.881984998960608 16.123547055884245 16.14106111383939
K 17.06091215689776 9.428880636850312 14.628941110195022
K 16.068074956607344 18.93240739407602 0.3377303368789375
K 12.365717559585368 19.523989072285012 18.691794466517976
K 20.661730805166872 9.291135160174647 17.297280285707142
K 13.488829128166756 10.147169010856949 12.04666679234234
K 13.911083048418064 2.0821769952715603 20.925747797262627
K 17.392368860276704 13.931912860894398 15.435105889829774
K 13.65787487425941 14.646259982058671 12.770272086217531
K 9.450657542907244 16.58398661226033 11.826737540683883
K 0.2990257655012345 13.53906941486141 17.953140946121415
K 0.017025993380916555 11.70385052566151 13.58942846847027
K 18.7820440987275 17.593683346661784 17.857423491357295
K 11.032839720475215 20.168373683705283 13.989445574317617
K 15.02589931911024 18.15696595369647 15.278561405976786
K 17.291996361753018 12.404036795657204 11.034495940830379
K 16.71311808787507 0.7126643855894438 17.616464965178363
K 13.489523716956901 18.568944146696627 10.517509380898815
K 0.2849517254550959 16.164666929972366 14.195303290976613
K 17.65372280466185 17.05239388398474 11.644302147409675
K 19.412213724638313 20.229426340226254 14.237300118531687
K 12.794997864067998 2.445775791509138 16.477978857895415
K 15.356061691657581 0.8079276124951473 12.811856977264597
