29
Energy = -21.83607656 eV
K 17.979297926192913 15.037769477646638 8.272631530054158
K 13.366708926113631 15.102955789982326 9.304887059547392
K 15.626085792771866 11.25977697972831 9.872683805925837
K 19.880338383101034 12.370418075623583 11.283741734805535
K 16.175762510204148 18.641446707187633 10.29773696379248
K 12.520038862909889 12.595877560243979 13.287727533911848
K 16.408355619118772 14.675438049247006 12.266544574762053
K 20.283670851965862 16.962458029280846 11.880346681436357
K 12.559596206886399 17.024911894291844 13.372777581863472
K 16.70372594302767 10.798543762984682 14.311169183014554
K 19.03734424936577 21.06827544662003 12.997791632003185
K 20.427510766420102 18.380530822323877 16.90437629490051
K 14.288429275706905 21.22203798968532 13.506370039656172
K 16.719498794774182 17.977832242989006 14.793998072396
K 16.844421215190053 21.407028697742845 17.48650215316154
K 12.73758695479036 19.087230562525633 17.36992813316885
K 19.68196264435942 14.21925513538633 15.573959595216003
K 10.920126445627306 14.922357467011343 17.3861189740752
K 15.1270045810188 14.427849602763557 16.501601927752716
K 17.955660158934673 11.507259720139817 18.540495663276698
K 13.250769960145174 10.991197781584168 18.002091121859895
K 16.25863355493009 17.355611137554664 19.194024971767078
K 19.16298861597994 19.79318876946881 21.218024755702785
K 14.573351147486306 20.719348812413017 21.343948693657545
K 10.829280419683794 12.664302444794874 21.46398393173
K 12.203281707400832 16.889787209698735 21.32077137302617
K 19.68640553664051 15.256653756310547 20.34731788754596
K 15.094767374894118 13.46559557441747 21.274331343314202
K 16.517977329379672 16.99564225537348 23.444698541696546
