29
Energy = -23.24673313 eV
K 16.851524393916176 14.885239900107603 9.742635011916589
K 12.894595109020612 12.333512887293965 9.260292034015258
K 16.78073123449772 10.373010081323939 10.898619252094502
K 12.457138115541952 16.81285423655907 10.946631172697892
K 19.184207152391945 13.619210054943194 13.608896669709772
K 14.47028745412573 13.391069227471366 13.166642060323621
K 9.938537419469213 13.199452695270935 12.830266017909002
K 20.512876033802247 17.81697619580462 12.344488111472858
K 8.751831321459095 17.667298608421614 13.417100706259289
K 12.994384967854565 20.576377272815407 14.321772819274615
K 17.898049986089156 21.355371510313248 15.249727015779172
K 12.738788498341021 9.374738921690861 12.951811665342271
K 16.237148712927322 17.606484789283666 13.325101136884228
K 23.140913343357997 15.314199183765817 15.562392666815418
K 8.593448702898979 14.675134526196718 17.000057425898184
K 19.524039897992093 17.440813136601143 16.63788735782027
K 16.51672728233361 10.190423034662214 15.656303998078714
K 12.255683645853317 16.376250823860776 15.612079637361457
K 16.20131296687987 14.558402222196838 16.918030440095887
K 20.15035515862387 13.014548022546474 18.222086242878586
K 15.265478753145652 18.720210371320363 17.85395508135848
K 22.266996432561335 16.855746866227417 19.95124637786809
K 15.401504049300227 22.902737217023674 18.675494851001584
K 19.13903490595923 20.450708397256232 19.910653537489356
K 12.312254413519446 11.874917844248872 16.977436360595366
K 17.78053463967622 16.09149950177457 20.94077330300874
K 15.885726991103036 11.73433582370401 20.108557941308533
K 12.966500336883106 15.435208902655837 20.066844536756992
K 15.145135442921118 19.60901510710624 22.097963930431284
