29
Energy = -23.29376177 eV
K 11.642309434406897 15.964510159849342 10.029890330620287
K 15.843120174501644 17.79782918277322 10.791432009176045
K 12.048847948637562 11.453871687756953 10.212672403662465
K 15.400127696076769 14.108547703418804 8.361225590411214
K 12.060886972605832 20.349300016206914 11.26206621322454
K 10.41815899677042 13.586716012797778 13.818682351647274
K 14.81655466083012 13.569860070714514 12.588652817777405
K 8.69062681231544 17.845842381159905 13.170920696675626
K 12.779175723174422 17.29032809718491 14.161436346140558
K 19.726394644610398 18.97022823259378 13.309969083184974
K 19.18004741676253 14.429539854490956 11.994674371302818
K 15.55624030140039 20.696917477287055 14.521674586121122
K 22.022418638319614 11.526321387272745 14.83432086555894
K 16.856210948300166 16.49245579257397 15.063112981561481
K 21.118613732295294 15.54821725730794 16.18325384809304
K 17.74748065527088 11.988186580630236 15.557393445211952
K 10.908685017272337 20.795986635366045 15.740098660477685
K 13.478452471974595 10.196070711040203 15.101166757218884
K 18.89517757266634 19.236894813901568 17.93627610440703
K 13.628459891329706 13.949974286841812 17.080524724760483
K 10.181721653261286 16.602923957635916 17.58337697645406
K 14.324445744683219 18.48157892366448 18.363866358967538
K 20.669167316781607 12.044935034539556 19.135288934116993
K 17.547250136460143 15.136509697164875 18.97083382326754
K 21.31882840924953 16.37561778976705 20.66779237684779
K 15.99664071124101 11.090191729468449 19.50090144264562
K 17.293034702723208 18.038434087199047 22.14658505992328
K 13.883674576312787 15.06616598090039 21.339302570437095
K 18.202618758100748 13.60141617682597 22.80797998844116
