29
Energy = -23.30820228 eV
K 17.584772015718872 16.79458115799575 9.297207053739264
K 18.324091153550583 12.67730475852453 11.125999472545153
K 15.897501269665488 21.421829559681413 9.468769796869754
K 12.937524248813347 18.00603163425848 9.330243716808306
K 11.905768203911693 13.04141182119341 15.279842923644162
K 14.379741315949866 14.548483367586655 11.758319613678884
K 19.455363546352732 20.32519515547599 11.99404466377961
K 19.0355456835308 16.22509289948231 13.656846127953823
K 15.47166730527612 18.843068463627702 12.70694592040775
K 18.163387777059697 8.709141423112053 15.252089162539976
K 12.16144558492494 21.612777463367518 12.17025046977501
K 14.411527932208736 10.02874429602005 12.877489297059263
K 16.10098028173395 23.015593393722543 13.810277396098904
K 11.210920490258534 17.300744439563324 13.723900467700476
K 16.678363489079377 12.726334147954626 15.228830272584734
K 13.290241512157397 20.505876130487948 16.53578549184616
K 15.00169969603734 16.49517112824869 15.951346298119802
K 20.902715503599183 12.41194312970654 15.4965301057606
K 18.01689064841194 19.767630184089867 16.49120065236016
K 14.264732992229883 9.501247628693697 17.438341620190492
K 11.30762873730179 16.47528282261482 18.303920179883484
K 19.05339970007694 15.675778577335043 18.174120898633753
K 10.970984283276007 11.870258230253413 19.61700662526594
K 14.82197392044207 13.686735299978437 18.986696423220774
K 18.498687753105838 11.069101189901483 19.14324454881073
K 15.52886043805068 18.03442615452977 20.004171892162656
K 14.762139842210845 10.733027359134416 21.90200128955078
K 12.948719882124989 14.829816574302056 22.646877721652988
K 17.55215162443003 14.306798440648011 22.267126728846648
