29
Energy = -21.46793638 eV
K 17.167731676523957 15.652541720681846 8.918214940398057
K 14.42172072053158 19.145213972000327 8.450348073563624
K 18.690934350291233 19.8476887530435 10.020711753119746
K 12.68707351787755 15.10257165072253 10.127009347534091
K 15.142143183759789 22.029895170149448 11.832558398449398
K 19.76322013566104 16.2338718724153 12.85750777636998
K 15.504303470615026 17.826649404528716 12.27001462536677
K 16.069017168985592 13.366882277927582 12.698147817442697
K 11.32450732511913 19.213275975069475 11.887248579718774
K 18.417287516994577 20.286016930601924 14.927152859184844
K 11.874542352528215 12.027637938832155 13.453437726116643
K 8.879344845084734 15.310397416304669 12.434668694947662
K 16.324112502895986 9.49735567913734 14.891387975654284
K 12.214940463759415 16.11547489208456 14.960187091076442
K 19.237534430368918 12.79002505060393 15.857393892414008
K 10.420196755164127 13.477040957998033 18.207618406545393
K 16.526699767357265 16.478757128273507 16.019636836113122
K 20.686713148482276 16.976858814870006 17.463010522448247
K 13.914979791090522 20.154149783217395 16.056401270648546
K 14.466459135223609 12.7126695746208 16.995093581474887
K 21.253955224403015 12.98378651838278 19.94265141925105
K 17.427718279024813 10.310753072289366 19.318623391552972
K 17.30843560756121 14.74223827246139 19.6151122312443
K 17.10552122258397 19.314894277424624 19.33739558875003
K 13.214625692834453 16.86722759293012 19.238113740893695
K 20.153058094466697 16.816719077445462 22.089921556620858
K 13.600529002348395 12.717011246315243 21.37051322754135
K 17.985652292286662 12.758879886420551 23.143957585189426
K 15.64294686727983 16.669419634352078 23.041865631473247
