29
Energy = -23.08889219 eV
K 10.596787225605588 12.817758980371366 14.610073725072601
K 10.999017816241414 16.201650346468174 17.95670261467554
K 10.161898992908643 15.440283356575973 10.92822989990864
K 11.318609844477887 19.554497106310908 11.83276800864649
K 14.004619521246463 12.818297323706599 17.661420470372228
K 11.683966809825096 19.572093892926404 20.956897724922424
K 11.67064041198187 20.310102289604664 16.18725012364868
K 13.525896648776296 9.463186966762285 14.305245613611676
K 13.341923447547295 12.443887830703414 10.888314816693077
K 13.725775443852502 16.22152199919229 14.379756084625106
K 14.617955919370589 16.115939309693974 20.911868025275282
K 14.551920335116808 16.87109157064095 10.118246892931987
K 16.930024110352274 9.569783022067288 17.2999161075893
K 15.4389085168564 20.309131469295163 13.568166399363328
K 15.470695661145019 19.862925452435856 18.313073726334423
K 20.300614090358778 12.424012468381497 16.483285410834444
K 16.697154729322857 12.846387469789086 13.866768173344
K 17.890689525745902 12.865154344422107 20.334947079334906
K 17.646569606110127 16.158695386902338 17.10109137117329
K 18.89160394139048 17.390159733815054 0.3493848970490484
K 15.699965861927744 20.090529036513175 1.901920515094116
K 19.40105858879825 20.367325008052067 15.905818315481769
K 18.377346086885886 16.979743473768085 12.514025943242109
K 17.64921287541487 13.537553258992572 9.421148863631558
K 19.048664522966774 0.7552170987027126 20.303689690213133
K 0.1639630564003158 13.532447683419916 12.035807849608352
K 1.0270497206102052 14.753210025514754 19.860068419827908
K 1.3376057854843815 19.1817247737085 19.153837233902188
K 0.8083968608718838 16.56763746040139 15.448907786792821
