30
Energy = -23.49043472 eV
K 20.73693444857126 12.753077657485 13.761829858818517
K 16.820205762006537 11.140813717539816 14.91922869880828
K 21.464750426085413 16.03589443436994 11.060176657065757
K 0.3678537629694097 12.411233190151426 17.69670465718598
K 17.333235386004073 14.818587323248188 12.105281621083305
K 0.4298372629864163 16.467223863793237 15.849917493545046
K 14.54125769860686 12.808699351072267 18.20870653936531
K 17.976080151198612 18.214420452766372 9.674025932247794
K 18.45068371759458 11.856232462268379 19.597811673253126
K 13.788148457849651 14.285347113328 14.19967413226757
K 19.6669506291173 19.068090880135557 13.608396477767606
K 18.178684015245736 15.05511938572345 16.40160964670201
K 21.076121045586472 15.743090125372522 20.175069758159143
K 13.884489117323229 17.33944265407198 10.909189846689443
K 15.671132453540004 18.292569351845863 14.93494694081259
K 10.485969050909885 14.101967710269795 17.15928154022354
K 19.644061832444475 19.263818501633818 17.907813243124487
K 16.015724719210375 21.370440342917693 11.905363627007342
K 16.679916737808025 16.23354676246353 20.025092647856365
K 11.043600513631507 17.605558612553338 14.417655506292279
K 18.5433847330775 15.63354224795634 1.963823954234079
K 11.728767701241232 21.01277394811378 11.991946090375588
K 15.614878280283646 12.72809698738797 0.7745008066165285
K 17.71779862917386 0.5812131506089686 15.725301259429818
K 12.996916947498365 17.52742579779539 18.24519895845216
K 18.99576080280897 19.53976739399145 0.31872770021323327
K 13.294792775009622 21.71912720690026 15.938940961365912
K 12.066121833233897 14.641089307457953 21.306203038841016
K 15.781179043767729 20.58747399401386 19.404422462786798
K 14.686321259953676 18.02072722670459 1.45413878781026
