30
Energy = -24.10790704 eV
K 18.198476045248963 18.9858507163406 9.955098470995942
K 10.651732528640986 14.92589322669078 11.01246658904231
K 15.240461664309946 14.24972327595538 10.048784590482379
K 20.667123753901528 15.066504174545278 10.662534730673524
K 12.440943802877673 10.681790681025916 12.045706589767912
K 17.473827068757664 16.38349753874267 13.274458320461239
K 17.747599308286432 11.854639936121398 12.853474301069776
K 13.742140238078644 18.405285677877256 11.87438041718384
K 10.380074905368764 17.274590543062903 14.991465152499522
K 13.764490781342946 14.178065501258805 13.912541956144592
K 17.343288393409516 20.869451991291772 13.992228620958764
K 17.141444673212707 13.727036866393602 16.8125141069507
K 21.407005188660243 18.82078987205875 13.291812018434259
K 14.772281164339638 10.2255350860852 15.866182676508025
K 21.319902010239396 14.479509859810745 14.943027659899858
K 9.525148538146853 12.906340990755057 14.751143265037376
K 20.662764574833442 21.612496149775264 16.958843702420527
K 14.602447744493627 18.037030899005913 16.108160117582543
K 18.920689789420372 17.80047670634646 16.954570913831187
K 23.185372840082078 17.769331281196962 17.534886084301398
K 11.075855295097043 10.381828769074529 18.038709036188145
K 15.202251433352217 11.665425403071419 20.196994148580217
K 16.359775025998808 20.908791083947403 18.741005325356074
K 12.686549404110748 14.424611357840122 17.79776321219757
K 11.739436797392502 18.272548351423637 19.51171322651444
K 20.37783994621838 14.685690362993428 19.665099454133404
K 8.5652496141831 15.152603128905884 18.48012362274818
K 20.20896858226801 19.193970443542238 20.616872523116438
K 15.986614282429148 16.413991861081954 20.181173065836973
K 11.260909188595843 13.297362847075178 21.576930684380095
