30
Energy = -24.30941227 eV
K 15.512402161490934 18.138656049220593 8.362426062055654
K 18.336430505749835 21.209158276535724 10.201387941350106
K 19.772415934456042 12.216833573377787 11.533493461621356
K 13.655152591604494 21.549469139707952 10.972979238618269
K 15.574790533218811 14.035089919474508 10.937049954543294
K 19.654979300272256 16.67634966591436 10.173450720850079
K 12.116890209184522 17.05742529188247 11.47291094833379
K 16.31565182317652 18.471382143400554 12.729201893403161
K 18.776542773309043 15.19137967096538 14.37600160925621
K 11.760904435741658 12.51590475271419 13.251699590685636
K 16.732527733583886 22.520837515184045 14.32912889352462
K 20.603406908742137 19.649101033207106 14.054989155389064
K 12.457099247627115 8.808625728211272 16.242044440371792
K 16.214472696919557 11.098019823272242 14.5214815340693
K 22.9422976821049 15.862003138913053 13.241371817134311
K 21.152710160381694 16.691420161507104 17.753000154951874
K 14.403745004029384 15.668703365261443 15.13305488269368
K 8.75768504838467 11.761146273853617 16.693067059727458
K 9.911766406132653 16.260627688141742 16.114245240801253
K 12.872332400118244 19.981442610896917 15.412011741014435
K 12.955220043880363 12.883904007010125 17.722273079830927
K 17.17107991374399 18.859283363536658 17.315751486398
K 15.87410941999647 9.584688500985834 19.20931514906625
K 17.351483150080046 13.879871464993201 18.14765280719373
K 11.113266221847384 10.21824650591724 20.425849202205153
K 13.3048090707399 17.371961245315656 19.280379181237898
K 9.810483148078514 14.664837168458625 20.347412224536896
K 14.153480799964623 13.57644828302308 21.917286320697997
K 18.526062875349435 12.132423491137187 21.923672074221958
K 17.42079410924492 16.669752457132997 21.41040444336951
