30
Energy = -24.17860427 eV
K 16.632854398796844 12.334702211603002 9.179500748235178
K 18.621051856448794 16.727063349717774 8.993582758656196
K 14.107938018043113 16.388690715242912 10.163570002044507
K 14.65742823589425 8.480792817756196 11.235934657541991
K 21.03355290259863 13.236716466411625 10.824107476547555
K 13.475215200840383 12.497640625576826 12.74442139633209
K 16.97185546501943 19.42210770156298 12.476739636265638
K 12.23413680762916 19.8731958562069 12.919280872122087
K 9.885885522012599 15.720868416147342 13.678975878190949
K 17.49202652853822 14.8066402083397 12.738887412178931
K 18.085108633183385 10.46050027693615 13.250555090822385
K 21.252279285473595 17.469524080592663 12.917215611091878
K 14.009607954692887 16.452094711911094 14.740877540369349
K 14.077354402282257 9.317787625664884 15.872912648522451
K 20.82844062002194 13.620727781727746 15.622875989873549
K 18.092179357091585 17.24145188267178 16.329104879512506
K 19.51677794620189 21.270688491717912 16.36988525232598
K 11.708238004166871 13.287818597244623 17.16446397235864
K 22.177078089146413 17.54557298715199 17.573879585521752
K 10.822261263925855 18.517230522507777 17.401374309522073
K 14.928994517010128 20.660750200786516 16.809154429194816
K 17.744080180597763 19.59450706795926 20.3823010936249
K 7.715446661590708 15.385247921277118 17.798390374499846
K 16.44906514873842 12.84445613544896 16.817196169452522
K 14.292861638856127 12.546301967061279 20.843414081035597
K 14.622683149343937 16.522656177235124 18.957807761818824
K 18.80813056506143 15.034024156696649 20.172883576101174
K 10.920911349371016 15.815611768490305 21.273206672442562
K 13.084838983896967 20.00912734212831 21.178848675805302
K 15.3456881330419 16.509472755741996 23.16262226750462
