30
Energy = -23.8466992 eV
K 21.40167615069599 15.860154699309959 17.901811652495674
K 2.5702581001451765 17.882846725719975 20.296384809007954
K 19.58995729184332 15.883618263759088 13.267582114915403
K 1.1552627755444176 19.556537670764012 16.26222719408805
K 21.781561412701887 19.79541198705301 12.181456089822326
K 20.144381376632627 11.84813687886989 15.68009368995462
K 21.438041572725197 15.881306563878837 0.5631837716795375
K 19.24031015382185 12.547817916992559 20.334408666420806
K 17.72421983577443 17.070664891669846 20.6271220050109
K 17.135929129603113 14.865221889509817 17.061956498392206
K 20.823176771055255 20.113624957551796 20.159322584293683
K 17.360953432463536 19.91489581206206 11.464221971997807
K 18.688881671831286 19.482924197243623 16.080998480705137
K 20.1375287420636 17.354379914382523 8.863566336284181
K 16.25285860199168 10.391426788425111 17.368793152074556
K 17.360334658394162 14.398691720625356 2.101673519968308
K 16.214674845289018 12.516440580978495 13.286904078000722
K 16.231222981210145 21.03130342683022 19.554621696761714
K 15.131562352580147 16.969138494046057 14.041483902605668
K 16.164037719168846 15.551901207069292 9.908259307638449
K 14.549981842149212 21.08282057418859 15.119572098712089
K 13.059328059054758 18.825358350511628 10.529709287117717
K 14.02586219385068 17.638297263464793 0.6850994103975542
K 14.762160300678657 13.462167330896671 20.695169507926508
K 12.88851829942811 13.466516666443068 16.562558378528625
K 13.464988227647776 17.71178532463988 18.265849088663053
K 11.948827016439058 14.554981318300921 12.184498333985532
K 10.838618610955303 18.4142953657608 14.449642171723445
K 10.655390784503231 15.119211470310175 20.819732695887296
K 8.899536952204821 15.119408594640642 16.733030566759513
