30
Energy = -24.16912356 eV
K 17.31664510959435 15.44995736335389 10.469299108359724
K 17.103612222495144 10.69459180722693 10.112585782275735
K 21.226741589953928 12.823210566327349 10.288617010069661
K 13.251488525272121 17.52024743255377 12.1088917429538
K 14.041833199858681 13.042620123726653 12.599174961750725
K 20.919471875023333 16.359655511749967 13.32687811546329
K 9.798064014312649 14.817894341953595 13.64716698408989
K 18.679859341761627 12.353836574297487 13.601936615912562
K 16.7955205889286 16.217297967274998 14.667007519405578
K 15.512853024720428 9.06720737101723 14.185381114956938
K 10.0464643586721 19.067010051987122 15.516780466863349
K 12.807394607970942 22.03020927435417 13.161934302975492
K 22.799676403213482 12.362171912161905 14.624892532127763
K 12.851454602967864 15.646708923943892 16.32638920554572
K 16.98345082274979 19.978775210531754 12.484888316293581
K 16.284426551255958 23.308519783394566 15.851989118060244
K 19.51614520128893 10.045937362057021 17.199345201368992
K 18.94719615997716 19.36206850096668 16.778195165659618
K 20.10169562219636 14.76765510863695 17.46135913562152
K 14.457684528014198 19.540211871765838 16.18568231969119
K 9.08869289655323 15.443602942024253 18.186136466525653
K 15.958051092049386 12.709491729707032 16.911069956626747
K 12.987803587731012 13.845693323082548 20.233996650597284
K 11.951241141678853 11.226144419256254 16.201568202361607
K 11.988843374849557 22.717591101100524 17.596981550061912
K 16.322164664954073 16.69575000141216 19.3305201205848
K 15.30308919475855 9.000241484752836 18.713812615310445
K 15.581699666911351 21.2776625367623 19.877956793306513
K 11.995308041519237 18.438479218896383 19.91957996274755
K 17.659815299913827 12.467943494871346 20.708370273579014
