30
Energy = -23.98805626 eV
K 12.012516950413833 16.63709773225744 13.641916070847023
K 9.628243885569814 17.773085966349832 17.384953691218218
K 10.16960319911514 0.048334371721005846 14.04861744311763
K 11.859679108995211 13.853208508512843 17.40552814175145
K 14.597829162196652 15.594219579667426 9.79389205437607
K 12.221726443781373 0.7190147188667402 18.111717376169675
K 14.479468255664017 17.471109753727042 17.426376200549377
K 12.018555912555875 17.19583697773098 0.3630386678138657
K 12.559879101333586 19.625281775052056 10.332620447845276
K 14.432125590668482 0.2057332907223801 1.1370191994858305
K 14.570838151311051 13.32937230255736 0.31985777186660175
K 14.441234684736648 10.026737500318445 17.426823222273867
K 16.86774665263981 17.191031283953805 0.5690945335961858
K 14.690184822305907 0.04847016714775642 14.13396467611422
K 17.029755398702875 9.627615209243674 0.36681071099749996
K 16.67579462053129 8.912459806356388 13.512807676040797
K 16.97874603031993 0.36469043444550886 18.19138589754581
K 19.23686336690924 9.732648123556988 17.274781482635763
K 16.990923971369227 13.69028861666683 17.238578585128217
K 19.230560518351087 20.38185058808204 14.278845152235144
K 14.178755892126036 12.695256829876776 13.566604396280008
K 16.838851238564956 16.56083387641555 13.698238323695872
K 19.540642843748113 13.328421749345603 0.17866056297210137
K 17.058314898622182 19.58704455863733 10.34513343942031
K 19.62448754363843 17.379536086584462 17.750246830041117
K 19.2560589875038 12.57578406113432 13.345795592564212
K 1.09896553817558 13.373450591508735 17.016774080913475
K 0.7327038404263551 16.600776220805262 13.680143539189176
K 19.213988851353005 15.547191697352638 9.825049471627915
K 16.654882627343753 11.62527169947414 9.802806850222101
