30
Energy = -24.20589324 eV
K 11.70477191955781 17.44055718088469 8.488290970453452
K 9.607197049713813 13.362193817145988 9.477292567463753
K 17.224869560816735 12.253822876853857 10.557340986615852
K 16.32072300848741 17.038470144986192 9.103956975372324
K 16.651090675378363 8.480565667871202 12.986609773799197
K 13.351181173115034 14.457721288339819 11.104274774479027
K 9.625666749780976 16.8895847335823 12.617293612576127
K 13.717809392965945 19.14583623609188 12.363279726149168
K 12.8034903243735 10.024519167745332 10.804396637474337
K 14.860857466213174 12.001378240474377 14.540435575645587
K 18.917628736088346 19.96340224687673 13.472583535790061
K 20.55357652020373 15.59784862420829 11.569844601417339
K 10.326496133350577 12.444491031032074 14.07824312761597
K 19.466131417255298 12.36622573278077 14.951343759226596
K 16.878626102863237 15.949248630577873 13.494323680450758
K 20.39384871283906 16.812770371630915 16.620122307051762
K 12.923042165993559 15.96628897475761 15.529789445671177
K 16.05705185403096 19.107971119733843 16.676167435145164
K 19.595797250910366 21.127623316752274 18.13723377443169
K 11.802103541266835 19.983814830997304 17.31742553721728
K 12.416638800369771 8.521750887890418 15.200456633187025
K 16.6385763584752 14.69732178339706 17.781878271312692
K 9.42366429505938 15.937477893164864 17.79918499591028
K 16.91960870762606 10.314917269454671 18.370881493582463
K 15.311729064963604 21.1490309004001 20.37499403065153
K 12.620635029439077 12.420292768681087 18.527448265390554
K 20.348135839787012 13.331889180177408 19.647068833909863
K 18.18480202947721 17.517982697155993 20.795974264423045
K 13.500899612563325 16.80999565150067 20.19164635433441
K 16.308612701063645 13.340268928883598 21.875480247279672
