30
Energy = -24.27594343 eV
K 18.337786288084718 12.415912633666599 9.589687107258367
K 12.255865734626418 16.996915385880936 11.025121812736646
K 16.8302415292442 16.458837383789778 9.762461293719939
K 13.8400620102824 20.760713748293693 12.827095431950895
K 21.620104446187838 11.318661504617797 12.2273777307281
K 20.99393217021078 15.906151753421332 11.541911910057413
K 17.251385784070724 9.410017021443666 13.118684523038365
K 9.840233733444634 18.9844042899811 14.316147917317748
K 14.571971273275437 13.006613102566453 11.688024944097839
K 18.592607112611233 19.61361975608774 12.50480964540169
K 15.583987605611506 16.911116327295176 13.9249186600618
K 11.080910470361255 14.477892435160433 14.448344058732962
K 18.410468092589735 13.437958567104765 14.103359295122859
K 12.383511231994172 22.374314334233762 16.54248329456868
K 20.7066799479197 10.003848483593394 16.416192909699753
K 13.147890427630173 10.303108999424751 14.854341932883441
K 16.4683451289805 20.668646711041923 16.59329470685384
K 22.545433401630856 14.083188668840736 15.562174962776322
K 15.027481357283213 13.860827656908885 16.7204320736157
K 12.84428938596974 17.722371736184485 17.12958145609335
K 16.591536580450757 9.910031284970522 17.681622805790873
K 8.61625489359442 15.918034569799064 17.744827831500842
K 19.283865969623708 13.50292532728167 18.715397199167025
K 16.65860751517144 17.17926030731283 19.5488559990201
K 19.630899277987794 17.3077626295825 16.174892460414657
K 11.318221816151388 12.670005586826475 18.612658685188716
K 9.7259584014982 19.86387490099733 19.171407185692615
K 15.150666396854536 13.24355457780234 20.971579688337968
K 13.93598494147095 20.486792391697442 20.41033099115009
K 11.908589031515437 16.3564098805201 21.225753443348914
