30
Energy = -24.11222449 eV
K 15.648059899619284 13.111913109717127 9.226301171275631
K 19.259758915943085 15.777766431066127 10.543152967669362
K 19.13923203211313 10.922639485356926 11.012840175303923
K 14.60115428241265 17.25481341453374 11.111860837931768
K 21.737266116938475 17.571283531559033 14.752448641283298
K 14.923298462244471 9.692495894601848 12.61005683978344
K 21.227184501239368 13.282174959325802 14.048203010342723
K 16.797257721912835 13.85749643606606 13.416072379326668
K 12.214172821522162 13.377254815479871 12.373642177879036
K 17.643337074848297 18.69387703439199 14.145777159685814
K 10.576771422646436 17.73120582555778 13.497586536108068
K 13.737320265707979 20.903764669441944 14.730794952611634
K 18.32743422221523 10.250970877200302 15.683737030472239
K 10.321666854229603 14.202509414156058 16.563210839742215
K 14.037778820729189 16.352557201171052 15.54565406767236
K 20.628405800958806 21.91194533599319 14.330827904659767
K 17.22752860126642 22.876784501693294 16.99351962190929
K 11.163627265417055 18.618745633228407 18.138679460729037
K 14.262384013350246 12.135590056134623 16.609052317825828
K 17.047471366362615 11.820028845067386 19.980230411760633
K 14.738280122778548 7.932369397661563 17.0616946976578
K 13.293506439572116 22.43568160689647 19.21241660477099
K 15.796709821753684 18.88504254030362 18.382974240250096
K 18.472346498959624 15.192255364803948 17.386410075582166
K 11.003671637188404 9.747438771087205 14.890274122865705
K 20.160932506945528 19.56301077782559 18.433886601470004
K 13.707424947663162 15.048159870500795 20.020833274876207
K 13.572493860091043 18.958169552662635 22.303149594557258
K 17.340671890640742 21.456038425640106 21.49736278566446
K 17.573429712535212 16.61659412067968 21.677927398136934
