31
Energy = -24.94535916 eV
K 12.640405630598288 12.440297743307962 15.40295346947593
K 17.187602069830636 19.59189566823224 12.58170762986967
K 14.316644506087583 19.24730245590995 20.803174115827037
K 19.900565658785347 13.06453966617388 10.011723513442185
K 19.366760303171194 22.087207259495614 15.439411032277993
K 13.34625977520836 19.856782069222835 16.147702943298924
K 16.246491037584896 15.971147059946503 9.882920523119193
K 13.805004406328665 11.74600787635949 19.709848593720057
K 21.690612102440742 18.578445966672124 14.596719451366676
K 10.759786556949836 9.285527481256409 17.359050638204543
K 12.548898428326417 15.37327317231622 22.206439300593495
K 11.673729276481877 14.174800065604664 11.540799531451734
K 10.157128320463016 18.205260427700175 19.356570549269914
K 19.962095190839793 11.277937457992333 14.408340044041765
K 17.402611720407513 18.0965110044289 16.894119494905365
K 20.581877118658635 17.6236310343898 10.208851591929495
K 18.867571703474017 15.426174791231817 13.479034276157126
K 16.955084024056724 13.203150103494771 16.923365661667386
K 9.733687497174722 13.577940565816137 18.76027664427706
K 17.23900105689002 15.5968779261023 20.65170556707126
K 20.67003429274354 19.40756031527195 19.071829084662518
K 10.179563712256467 16.515168323002577 15.173276784558063
K 20.942579391310986 15.171375530934602 17.388152707988716
K 15.457306081627417 9.18996871010011 16.066063550311647
K 22.976147961458818 14.555777739325876 13.055747642147091
K 13.562704691785523 15.859802765437554 18.168485337804242
K 14.671157795968082 16.049993971658843 14.036060270540666
K 12.60260224417673 18.715751556984177 11.61992998227349
K 16.631967336468406 22.233621154077404 18.639950980147187
K 16.009975219742447 12.022105910167502 12.407479694791157
K 8.442497019089073 12.382516357771753 14.536661523194878
