31
Energy = -24.71568849 eV
K 13.671242751860357 10.957759170881484 18.86889472153199
K 18.119310109873116 10.402331119623236 18.90339494567148
K 0.35638059941293854 11.274064137781703 19.30530760298641
K 19.43806655487222 14.055942205158463 21.375921373410122
K 15.026586395362996 13.334673409583134 0.2090275434761244
K 11.910832673513594 13.385167996494625 15.509219602802117
K 17.755722481563982 15.918537449681871 2.9311036497777443
K 16.26811423135519 12.058768460701106 14.620144160097242
K 20.35773890124403 13.512053266524473 16.297692631195144
K 12.33307858547703 15.925522865102735 19.26200457086784
K 0.7256195021740898 15.792875767402615 19.263564738410093
K 14.40216601193039 14.806690419487467 11.00490876605944
K 15.948816795505286 17.76451006961119 21.51045160950146
K 16.291826809902204 14.482321938635785 18.205956264285312
K 20.36971501775722 18.34825221864803 0.1657544848519471
K 14.231368117593071 20.160060225057585 18.015357579442462
K 18.510857989983222 15.978454103004701 12.972406516379955
K 18.155699458972656 21.642200178278713 20.001400290484618
K 0.18230113597297554 17.486919308197702 14.998382735034491
K 0.35454955554658574 20.20997836302468 18.916870335099752
K 18.68002421266008 18.000963271505654 17.43494638033792
K 14.536134567481158 16.866993203363077 14.886911202393174
K 10.107084518423981 15.627089164116962 12.179253730766538
K 10.52324334498161 18.520393923615355 15.57867221359326
K 16.658827208996577 18.507354743620017 9.659919544895677
K 12.579793247431464 0.2990718933779005 14.504513426273796
K 16.249254731264802 1.809857042427748 16.640847429945758
K 20.54678947455997 19.823176087950927 11.487744578165909
K 20.316952277846248 21.988639804664874 15.563802502138124
K 16.61261080276173 20.544227851541827 13.708272721027946
K 12.597416192375873 19.235812175946016 11.466093763277259
