31
Energy = -25.01099755 eV
K 16.137825948639872 17.56549686509578 8.275778023167135
K 19.977049671809514 16.41842092589905 10.302505602986864
K 12.88772189973079 14.891624191854339 9.82580121098976
K 17.735923717510342 20.44135419113283 11.886361776937257
K 16.14683717634501 16.21304585727009 12.201180796450018
K 13.281768461932302 19.53525011081021 11.374730612545308
K 19.179695786023466 12.947789407072195 13.500872171177512
K 16.97756269302372 13.044035975703743 9.334094985676487
K 12.098116139644612 15.846754206626814 14.387944019881418
K 19.72905216418561 17.402636982351382 14.721880997284337
K 15.386832918868055 23.412306366372263 14.547797375198291
K 16.13789476226538 14.88936365122293 16.07112001040417
K 14.61997651446944 11.935900141465087 13.208355439943713
K 15.003294554793086 19.207096165344304 15.296800735458401
K 17.5010208774119 25.022431712263607 18.586348285225796
K 17.06619626316646 10.757510175171316 17.2588218868531
K 12.772115422947152 12.716366778269599 17.712859469045153
K 18.865438130104618 21.529341289054248 16.35507297421304
K 12.949674638106483 17.23559438895815 18.653073469875164
K 20.308040333402577 14.168412959573589 17.81149090959365
K 14.940440752778525 21.48148535775906 19.108928208453698
K 17.59655054676488 17.988445069855896 18.60969085353543
K 21.853411086828416 18.40278146035286 18.691435348262473
K 16.280975497275524 14.218915641563001 20.131504003884015
K 14.95855667878035 10.376395798084799 21.447093705300695
K 12.553673410115048 14.357940490066325 22.20714337495355
K 19.321489276832104 11.533872146719387 21.47826549866357
K 18.87409360369363 21.20650685388722 21.179514323801797
K 15.468112722834123 18.10727984844492 22.468658817341964
K 19.808519439472008 16.297362570264255 22.093404709240158
K 16.540156958506618 13.806300469752179 24.229488451918044
