31
Energy = -24.84591809 eV
K 16.68444010069557 17.13124495439929 10.538673467028259
K 19.585124678990457 9.57970760025716 12.091315501073769
K 13.036973032844108 15.472335560897813 12.467676390389382
K 10.72231459396825 21.363826383191697 15.847986021421562
K 13.030036960875456 11.29894649212482 13.161543795959556
K 17.438378018274054 13.213806538523942 13.096061180682659
K 9.215664826358392 17.71226524424726 13.516914497202295
K 13.16477364682755 19.764779088538965 12.313036420251647
K 20.614693301802227 17.115846169332787 13.135481165035078
K 22.004224977519776 13.114622686487705 13.503036264643832
K 9.250353380234989 13.633154233369217 11.605652602691164
K 17.561415204961072 20.94262914107271 12.947624528451835
K 14.050199890365176 23.829254474862097 13.457531720404784
K 16.47617609077583 17.13106097005653 14.817855335952036
K 16.364886742750752 9.259849074175863 15.221376387506888
K 14.774808779012256 13.344255680841108 16.92353705174102
K 10.24425610299213 13.90360266249196 15.966170299030512
K 20.49263787848082 10.274128003404737 16.377212278537662
K 12.584351377536331 17.50361521544652 16.41235214827733
K 19.799847001272443 19.119230682076306 16.903443169958464
K 15.165750383248769 21.15688340267876 16.72426375393535
K 23.116346844505987 15.8925708549784 16.864331068189163
K 19.055518170517068 14.43983249148539 17.12578660607866
K 12.20232121789845 19.861915344147047 20.023404133712784
K 8.710565120087427 17.591467811623627 18.09265578378352
K 12.399735121484406 15.216411343045385 20.16553442072007
K 17.267679617558258 10.3757415451973 19.314384891870898
K 16.138640006883904 17.59966747215972 19.292329940637686
K 21.35095113550208 12.47923439566109 20.181898338121215
K 20.624602474509086 16.739012971812564 20.626840683206947
K 17.004207167239034 14.070975357382578 21.415963999474144
