31
Energy = -24.92888385 eV
K 17.667924962682303 13.34792665281209 12.178645168603527
K 9.955532781058142 12.199932564924483 12.344513492984078
K 13.36084982833537 15.412328451679869 10.837794732815032
K 21.467240921539194 20.043371500668044 13.189034681041122
K 13.725192017819092 12.522431344739603 14.298296365877416
K 21.74446866827619 15.671492559985268 11.427766646639476
K 13.743128537269245 20.022556082483582 12.429766004379703
K 17.76684677750986 22.49952741208743 11.656524702459974
K 17.75931433052046 18.050408720757517 11.044122092522814
K 10.673670055779366 16.368070687903604 14.423984464698329
K 21.160731028169206 12.636277059089718 14.998413028538623
K 14.626747172633788 23.714292531099925 14.90879794400572
K 11.80059146434358 8.691850879821729 15.00464577416673
K 23.75602048466965 16.673313545680664 15.515950762320418
K 19.474191521313376 16.676173920061718 15.149094476696947
K 15.312942635577809 16.69864099844287 14.571987334440394
K 17.554438489451922 20.69306629515111 15.595348364901803
K 16.6594843590558 9.337431131422345 15.016681958498951
K 9.816973238881912 12.402906786733707 17.006822035158756
K 21.286085924691566 19.591743200142172 18.165905774333567
K 12.89916660987385 19.616688739284207 17.097605709065295
K 17.331355586101857 13.167439532259419 17.146327912676117
K 9.453988068198113 16.728305842942635 18.939597357102294
K 13.302283340727856 15.025269197838295 17.98508195834898
K 13.879006312390283 10.524378435369684 18.664209047991562
K 16.868272765582454 17.77313191796735 18.844393954563227
K 11.416517375815793 13.287979722992604 21.454783800932567
K 20.9661456659255 15.093230016363286 19.09146723463619
K 13.06125728601117 17.636646406558988 21.598346297062392
K 16.14740871886974 14.158671271248915 21.428692567318343
K 19.567855638739537 17.940149159300415 22.191030923032923
