31
Energy = -24.90559472 eV
K 21.317933981960426 14.726954319251362 1.6698961610698628
K 16.953179944980914 15.844833493550196 1.6861693291406223
K 20.00254982721644 18.632342389249956 22.036833141762013
K 18.447747952830014 13.033238050205584 20.615335647922386
K 0.18003880303654418 15.452360554189063 19.334904728194882
K 21.1691676960426 19.475609194255984 17.550592335615743
K 14.000137044122226 14.69938793445611 20.595598393721374
K 14.673439295600163 19.100036004113893 21.582897550838467
K 17.492959421049324 16.95747118606063 18.60380493552508
K 15.45235116001872 11.974975618444867 17.254578345654746
K 17.698207174322455 21.62353714305322 19.517272863485097
K 19.53573420769193 13.629158256504786 16.178848908602124
K 10.774835764931334 13.356218659509018 17.494461524184374
K 11.085881034717511 17.68686892515921 18.995883277091743
K 0.9377169393656076 16.341960326472527 14.779627757469491
K 22.064474975407208 20.482684848558165 13.240424669227474
K 18.02224395561551 21.949155078525813 15.043467896317877
K 18.425807080890465 17.622594165440507 14.01970835026964
K 20.634696948670125 14.3637850675453 11.578406050677858
K 14.154920312852337 15.908523012091552 15.674051347809312
K 8.995095671021733 14.377876305183742 13.261590001974453
K 16.531843451563233 13.433613389425764 12.711482185699804
K 14.296296657121292 20.233004026165162 17.014994292049074
K 7.365788566653349 16.202856311691356 16.921326669996272
K 21.70736939837351 18.043538790260058 9.585200163375077
K 12.540729633213255 11.802710214073459 13.625907312636825
K 18.477261797726158 21.001429429189 10.47411152984061
K 17.14787008671984 16.894024469604158 9.612429141385968
K 14.70445785038184 19.705169102839204 12.50643148526871
K 10.659841970179608 18.384443176398605 14.40987537576751
K 12.878564614660577 15.792186049215315 11.182608707621888
