31
Energy = -24.98405304 eV
K 14.055931447312556 15.847784776869844 9.275286122210945
K 11.105519421024562 12.544662225981082 10.17917398540326
K 15.65748762774006 11.717194051395513 10.756421720319818
K 10.038479207492246 16.806092301852537 11.527420408831752
K 17.394571710898564 15.668175389571173 12.358852100761592
K 13.955165528675677 18.933054427039348 13.059421828397051
K 19.75669510827358 12.044077659184065 12.73858561738633
K 13.118147957339088 14.417649270169255 13.277917259491089
K 16.670547910894438 8.312159490479868 13.53870878442133
K 21.582746494826736 17.177981672390395 13.458796164551423
K 12.47636241448346 10.04556293807543 13.896010949959408
K 9.117770496312952 13.214961974436502 14.262613945917051
K 16.398683272269086 23.01447163805916 14.607571052888462
K 21.054113790065504 21.87523964950227 14.68383168321634
K 17.983421482697747 19.07274736966679 15.066529816036024
K 14.091670657490939 20.47182250159129 17.45047291659784
K 16.275243459402457 12.064491423465933 15.370762193909357
K 14.441569400673107 9.020565868926752 17.73540457391235
K 12.155786922569298 12.842618787573358 17.69858053901484
K 10.875792043971499 17.11620333032627 16.18527518444725
K 18.43411439976179 22.07247047275064 18.42487402000336
K 21.69535086802868 18.652432330440025 17.785239495503383
K 15.134951456108565 16.09602957435199 16.405025875935358
K 17.565007414936257 17.73443440059342 19.273859049260523
K 20.02518958891645 19.579846101810283 22.04062297527835
K 19.593359983026666 14.739763629791193 16.478082888174892
K 13.221749963453629 16.79765469984669 20.27796893820108
K 16.371209660629965 13.286349258745911 19.72610722789241
K 20.7465009859581 15.266054840011897 20.866656574457142
K 15.568008790282533 20.591613341447985 21.791354290616678
K 16.89749235011939 16.43447641928941 23.261213632638015
