31
Energy = -25.07993345 eV
K 17.600840376580177 18.534908773747873 8.342650419587704
K 12.262036593177053 12.763483508122608 10.077646788774903
K 13.332540317765787 17.382886252736757 10.031058159410058
K 16.965561733125284 14.158064575944255 9.502710898261368
K 15.334210237887268 21.40173073803039 11.263429217425951
K 20.508554640146574 11.678143767621108 10.373257409075695
K 21.023658088151542 16.260844312788393 10.771934901716811
K 10.025620302627585 15.479200962918302 13.316406002474558
K 16.087506067838774 10.464220631989681 12.31098797679255
K 17.13721784500117 17.60476088556052 12.573747939557157
K 19.914367114649384 20.71343171984581 11.866228155362219
K 14.435136080677005 14.440874023614024 13.283944589755919
K 11.65569554160054 11.129565386990722 14.433595862908785
K 12.948906851979464 18.82380421057755 14.472402788693367
K 19.174222293835555 13.695435275870867 14.05183264833353
K 20.636401802902423 17.758673180659265 15.540071951910315
K 13.975687700228743 7.993425559084506 16.858489076145197
K 15.858290730535758 11.920027171245104 16.696298320326083
K 9.378124985550272 8.55268501559124 17.0245010876742
K 16.359123378533493 16.4864163799491 16.679052228574935
K 17.04808764916213 20.880023290694947 15.71991428773126
K 12.30032559402516 14.81741420863488 17.083765606708443
K 8.333422000162699 13.122615758980508 17.375363768495664
K 19.349640519744682 14.090358468312889 18.841905155937038
K 9.083760300080352 17.71852632838964 17.394917673213257
K 12.016228548699397 11.144565213028116 19.562884770536375
K 16.261821226906243 10.056619625035237 20.551773705930806
K 13.340448273447116 18.694100190788724 19.20543272632736
K 18.449398472968234 18.689249662538685 19.572461823843287
K 15.167357715774545 14.57483720250427 20.675323298023837
K 10.51981678263138 15.453117484600321 21.030020526886148
