31
Energy = -24.51008715 eV
K 0.3549881404423088 14.622540669168684 11.672492487507213
K 19.192459044320252 10.408327779004539 13.07656358380551
K 16.692096858602348 13.951558546406043 11.47638061364764
K 14.885813517156121 9.761076734128148 12.740902015916948
K 18.49398637912498 18.13415632911647 10.23037847771821
K 18.467134535703163 17.098094169768878 14.72043661687748
K 14.08212767825844 17.206638718324424 9.851671460666621
K 0.11133702525452556 13.390394396283165 15.94315913919322
K 19.96412893025709 9.24515514604586 17.415393078050073
K 12.24385235239102 13.691850418627203 12.297239570322512
K 10.949595579201995 19.593889514126474 11.864763169113822
K 15.603740262795363 9.017277898777454 17.755511564155388
K 15.930913047212496 13.054156680560435 15.801818167159407
K 19.748050138369916 0.7308077057080403 12.989432300679752
K 15.33954624450239 0.21768880532536797 12.207870228850494
K 11.814644413921666 10.183457577892803 15.90604715863469
K 17.834046752008113 12.521528938171919 19.929847704273076
K 1.5221043795588958 12.21961411792738 20.00728947335322
K 13.866917296440427 17.325143536185347 14.697772511168763
K 10.717944650739922 14.311893676453588 16.307988553720808
K 0.5138111825957418 20.154913146242777 17.052980827794766
K 20.384609390748377 16.27841412842393 19.270004936954276
K 16.777191641898575 0.2806665791643838 16.62044692687912
K 9.02288912470001 18.430894260353774 15.594630025822086
K 12.330063816329687 0.7612925145859497 15.890949674921536
K 13.30023498536083 12.751969986776208 19.611344670324733
K 15.914680936791815 16.668830039091564 18.86577383147849
K 11.53684851004626 17.317426444702917 19.296682706042567
K 18.335587066259553 20.004396112783805 -0.009212374508137293
K 13.926989033067553 0.3636053058713034 20.192913293228948
K 9.410020256534038 0.40940141602846847 19.266417983545605
