31
Energy = -25.13660703 eV
K 8.392614986611036 14.59201291900975 17.99778630677383
K 11.269756844446968 20.001618156921214 10.607895619112892
K 13.042005298585696 11.277883183614106 12.829158796244489
K 15.50221668276838 16.310783766855202 17.392691439136705
K 15.083549728886279 9.891432036687354 20.701821793574574
K 15.830391047089787 13.214248902745746 9.442905175475905
K 12.753335435983137 13.876683557014198 20.03024561455107
K 15.770615624266654 15.027221502456944 13.174053830083949
K 11.344438814913413 18.18667193268524 18.173001251759906
K 10.538865628083785 21.510589245305418 15.086157439411082
K 8.654138442444626 12.831851541645943 13.643716840667093
K 22.237956455974437 14.283283495909703 18.737266932996622
K 18.135048099056373 18.86009454756151 14.3505087532698
K 13.579328781522262 18.79934214494371 14.014621669163013
K 19.88121275203151 15.101531523609511 11.354170128125773
K 11.739039891124 15.461921730677634 10.952343407400537
K 20.362055416022386 19.528383554038154 10.601569001989963
K 10.936532552370952 10.676730432530023 17.33964569392495
K 18.09206172361617 10.970137950259682 13.165776334645813
K 12.011556229860854 14.669651613534233 15.488456179806587
K 19.020524440052224 14.367991053876041 15.903331565133914
K 15.442711969645325 17.70716742458758 21.362659012058867
K 19.502809181197293 18.001847401488643 18.69643791497545
K 22.471134045874027 12.416586727922153 14.369090995877555
K 15.420228571034887 20.7134093365914 17.712927821218607
K 15.860840279386714 18.406731146612188 10.104711410443906
K 8.808962229891893 17.424999991177796 13.987810921447526
K 17.751311697691982 13.593453041656977 20.363283904574416
K 19.59885955688197 10.305193317152956 17.736991297181103
K 22.311678759716674 17.032067311806582 14.713720325385868
K 15.358646538875831 11.662907215028598 16.66967032949595
