31
Energy = -24.95875211 eV
K 13.163951380556442 17.517999258522288 10.502040517285955
K 18.407051634138448 15.863464109852707 10.498475473465906
K 17.01197413153886 20.40323205153783 10.874639090631643
K 10.159584787504787 13.844596576786065 11.767023942568983
K 18.382186521045735 10.980759085410961 11.49013158676449
K 13.001167920826665 9.814725775230027 11.913829992876725
K 8.899824508293348 18.384109696051965 12.566494551638455
K 14.750050050614416 13.685074142276633 12.336323572315356
K 22.252224628892296 13.685260168953716 12.220535119406172
K 12.672569607814559 20.839717170597194 13.776415456841297
K 20.929733146265104 18.05862508535358 13.864884209598493
K 16.2240636692625 17.860142922205352 13.995350831145613
K 12.050605664042058 16.513805778927612 14.814647520937873
K 18.704746987721062 14.090525748199616 14.634137161737838
K 8.069598974602584 15.208503250628851 15.842621652776073
K 22.43915816423128 14.946261389336224 17.042584378469982
K 11.547039470539112 11.959911372291895 15.726130095541338
K 16.13849023153537 10.353015941684852 15.578624485499153
K 9.7817486269786 19.448794047504993 17.318265334183746
K 20.96944373914794 10.549543699779639 15.416942640996322
K 11.30452103821834 15.591607147386753 19.319058842196096
K 18.52752476198438 17.34736918437522 17.721991149103356
K 14.390418075602625 19.30685909099982 17.823182162350747
K 22.080200393132387 19.518194185788705 18.451824062716426
K 15.096352647562808 14.598569643992448 16.99462158835053
K 20.630306235939923 16.251958460476295 21.339043937084988
K 14.037844812755505 11.66831993910747 19.77607131378924
K 18.784627870462195 12.758002193071867 19.07091941262339
K 12.548638601373487 19.418065050979962 21.618305068163377
K 17.77235762280653 20.12657668304812 21.04041730856028
K 15.789287794210523 15.92370484924 21.18176123997827
