31
Energy = -24.87372621 eV
K 0.5900766003611685 18.243529499039624 14.207143063129594
K 0.3972346323469601 14.194725893539525 11.999841393632499
K 0.5457416308148473 17.557901775354974 19.021546300423452
K 19.043490976596264 10.072009970241632 17.885762758889367
K 17.49093663381377 13.619107770322918 9.70642056068125
K 20.7079394479253 17.882805610739847 9.715039630400867
K 17.933579129227827 19.377236587440244 16.754518751653514
K 17.884654856323902 11.61754665381706 13.829508740045728
K 19.60204763404628 13.355940852942231 0.005509084643712161
K 18.15258132819622 20.715251898341204 12.229308809687087
K 16.3811027763483 17.944125765872162 8.969421796982788
K 20.400748996656418 14.32078101396239 16.442477069661514
K 17.180560732918735 16.277338124450456 13.437808316931884
K 17.14981146788267 17.202184390521154 20.5355664258776
K 16.038289108169096 9.534969498855993 -0.004146158738148105
K 15.265859582264227 1.7027996136281915 14.960437245454276
K 16.053927810522556 13.798897558694872 17.90016572356109
K 14.589472024060683 9.641359612745072 16.502210702675963
K 13.474857951078562 19.783681125308615 11.949387265691795
K 14.122176299197314 -0.04177807816919643 19.269093108285617
K 15.527207155953187 13.452929776983657 1.8515473124317827
K 13.3938772529825 15.311846610370756 11.212379364571708
K 12.300103202304873 11.932925784166214 19.76554534361622
K 13.6416078005948 17.713128055836815 16.2399313334852
K 14.147983398195265 10.863800190583271 11.911141906589975
K 12.438849491182554 13.42917968117783 15.183317893912191
K 12.675561683739943 16.415935271694956 -0.19618930799304443
K 10.997668054379401 0.7461093825996846 15.303781174147726
K 9.347722344393038 15.065396693970124 17.94949952178938
K 9.902992356017213 17.34914826165596 13.964801124565536
K 9.757369469178874 19.343607577003137 18.819566952783997
