32
Energy = -22.99844187 eV
K 14.39699804244755 11.473206592020652 11.76046290401191
K 11.445489278296677 14.3913120189374 9.653614712846867
K 15.852829476252154 15.666569036708326 10.67473492783774
K 18.62772275505159 12.963689081676534 12.899356042961115
K 19.65384899303903 17.426685593879213 12.66099297410224
K 16.721645313382524 20.239462632545138 10.452887211560983
K 9.848534653553028 11.584950030911033 12.960371173713272
K 22.406961061532588 14.618412249397325 15.087677432072498
K 10.014523188298734 20.179758415112236 13.908668069370934
K 12.428369477008626 18.706742974930943 10.651683959088421
K 12.604629350801021 15.16090042282825 13.66070703405207
K 17.231387503203546 8.722497739455939 14.223513805330121
K 8.523799347483733 16.070195994105607 12.773952621919422
K 15.576712675519909 18.39804585015853 14.126818255159717
K 13.945301184284205 22.40810088802089 13.255663341474909
K 20.028406993691952 11.123083560106545 16.869117691332384
K 10.030119934604768 17.02041283429206 17.002641182764094
K 12.929299435755905 20.448999355568866 17.146234629389994
K 18.490227945362996 21.67548582047034 14.490212418323448
K 12.739397496150643 8.775116391208165 15.298585023878598
K 14.295025876257828 16.010340674827233 17.50931948205489
K 15.564162009648939 12.223278850247764 15.987270269491056
K 21.41348349207102 18.78140652953179 16.86918383622515
K 18.490259294163817 15.506867290522859 16.506094881062157
K 21.648046669704943 14.79880544835568 19.513993356460368
K 11.30321303288082 12.686733840582264 17.090596595324516
K 17.11224262143244 19.409943349404177 18.220328858503958
K 13.121570697247634 17.555318148495626 20.92762862147127
K 18.679678082992236 11.657299602466225 20.953986148673174
K 16.030557628111815 8.827973399715093 18.62760504096254
K 14.40022734388884 12.691951013406893 20.424989417428137
K 17.531018100501413 15.882143324732644 20.896797035773602
