32
Energy = -26.08057961 eV
K 16.94865071066293 15.312452730937682 10.358708299375065
K 16.379868814563032 20.16126309628025 9.972687234196561
K 12.608650787253234 17.444905788006718 11.049804442752611
K 12.94229952323092 12.538411184043479 10.500331461490058
K 20.444293442589917 18.1836269746817 12.131606332992318
K 18.692436221261225 14.8083746861019 14.619906011928316
K 18.057332783045542 22.17580642062121 13.891992826100074
K 17.121640329810436 10.929325818548993 12.594842896267139
K 13.166379753969597 21.621708185670563 13.371818500504462
K 14.238723074391393 14.265277194130137 13.998661003929191
K 9.792603426176733 14.429692178433857 13.875486568014225
K 16.233770614398992 18.343252900721634 13.794207103603632
K 21.151525745664618 13.215576777545284 11.568977597293783
K 8.930384840722734 19.185842605583062 13.556200126482874
K 16.836033239403914 7.870258623756838 16.268301664132153
K 22.80741362957508 15.326303707843921 15.433914130677003
K 16.3258026058589 12.017899238395678 17.098537945882974
K 12.301213254372627 17.750024297416882 15.741194772417078
K 20.622850570091376 10.916705848991212 15.895716045142217
K 12.805131542961199 10.149409457150874 14.90656769640928
K 8.53904128922835 16.977821902809506 17.71501199303776
K 11.822575739231945 13.551629734098434 18.128524028960474
K 19.7115223534096 18.77040974371427 16.874101447040847
K 15.843920606447824 16.296267279760418 17.794573491814457
K 10.541226164892233 21.219707905723592 17.51122412749558
K 13.815871984458461 9.455981419157707 19.500870997161844
K 15.331909386938243 20.884144711125373 17.568026213300985
K 19.875693280722555 14.39901660946229 19.093973764125543
K 18.44865499248683 9.971477195646397 20.18867716288805
K 12.48656209508334 17.781170560490327 20.28216120175715
K 15.436390552630233 13.56236081198713 21.27860991005454
K 17.416802056068146 18.16106982276602 21.11195841437423
