32
Energy = -25.89305786 eV
K 14.81437972619087 12.963223042289465 9.064900363655932
K 19.795227832042666 19.296852818842076 9.11788764210793
K 15.468882839245694 17.49430035253324 9.581041628373075
K 19.33084263327115 14.588128125804595 9.691164904711341
K 11.883467535068196 19.868631164487077 11.032339498217336
K 11.788441415754548 15.368220789921722 11.813588007013779
K 16.603821421690828 21.540791909819845 11.646898851608983
K 17.93992710531536 10.619389044280231 11.641647049688778
K 22.835885182239107 17.148311786720534 11.772444591458445
K 16.160088089855574 14.391137702911609 12.9158219485339
K 18.75107626108574 17.808367475127934 12.990763115938396
K 13.194245596041938 10.997631879514774 13.543270589197054
K 21.149038089209764 21.42551575188639 12.956632352148821
K 14.485766341444412 18.567143289456475 14.225331541948957
K 20.55746484029435 13.634267295720168 14.195989682012657
K 9.481218637198488 12.964988579317781 15.822632915937643
K 13.387035394977222 14.713675007406604 16.130109797454633
K 17.821709929138915 16.175157311435512 16.82661415984872
K 17.97722996901007 20.656239013879595 16.507206657129974
K 16.90567083947381 11.37854099795275 16.362801949508597
K 10.310348414065638 17.84869969712008 16.022149128893748
K 10.711564617678757 15.042716144604515 19.774453364862353
K 19.72034972641226 13.321154834930796 19.62993909679808
K 12.655053912031127 10.690948219958692 18.31246560535264
K 14.160088816779133 18.719138999269603 18.662326257435037
K 15.279834794447636 14.277031540538022 19.78397009275851
K 16.597547433267774 10.148167534555864 20.911430281909954
K 17.942403858936665 17.76791644300649 21.005064747986893
K 10.391809985849596 19.408122106530683 20.747811524982364
K 17.30433411608567 13.923547606384226 23.644597358939265
K 12.996732957538313 12.328502349321477 22.7944559949034
K 13.692066436898072 17.01709593301049 22.965804047222466
