32
Energy = -25.91317666 eV
K 15.868703858981117 18.7003661811206 10.73277140022498
K 16.61848136814521 14.175430322714126 9.54803183609953
K 13.201471356389733 11.481728924882121 11.729943283754675
K 12.256210679911229 15.698577431759476 9.87559985060458
K 21.109526780588027 12.607951314735873 11.333669372413839
K 20.476424638199617 16.663646436506692 9.224859750435822
K 17.270533563774535 12.006777605575266 13.448533648318497
K 11.959934912550331 19.249948762341738 13.865325995661982
K 14.527824042974313 23.041589736639054 14.455662441686432
K 16.430771421745835 19.28178722479101 15.365911388246843
K 14.460200902674593 15.442289145667447 13.48986639493816
K 10.093829905377198 14.911781018913544 14.627647262040107
K 18.867749607845905 16.242601766641307 13.15553117472421
K 15.467005774776426 8.264441464241663 14.570650783740243
K 23.185503840179873 16.298695425807917 13.157471444068605
K 21.14076004369489 13.238844173631087 15.983048380023572
K 20.1432213223543 8.952320158003348 14.347516645459716
K 20.502118853644934 17.857238727829195 17.15398527112181
K 17.061667511833782 14.830397278781206 17.004051239289872
K 17.196614499373542 22.550693957362814 18.374317029865608
K 13.371269985456676 12.016491111401374 16.519434520234572
K 13.179701384751118 16.748586802774987 17.489603785816637
K 12.874849526574431 21.159685322753276 18.273969330510372
K 9.182806500480734 18.374375185341272 17.657103422858203
K 17.634501498121686 10.595484037712492 17.98637590104522
K 16.679208829391225 18.348667710704504 19.778800409370614
K 10.068341813628713 14.203080616347755 19.291096832318487
K 19.145275596971008 14.66081856787328 20.8007702195684
K 14.53428595614554 13.93045159092578 20.754897353519414
K 12.100429398648659 17.8833632759477 21.570826689435833
K 15.041340555979923 21.394807483433976 22.41620636160583
K 16.164817013801883 17.002464181805088 23.83190352596518
