32
Energy = -25.56566369 eV
K 16.203936696625007 1.2698537858947807 14.43753937422338
K 13.41378053462766 1.3778928529275682 17.999068504833524
K 12.381876181284705 20.69453042576897 13.745887723580443
K 16.160378617258957 19.78165970518786 11.13953658677531
K 12.381971787210892 17.817822406316328 10.108516068476415
K 18.511941952305914 0.6313293713828839 18.2677634571148
K 19.025828664201022 19.121300881434735 14.67984854166822
K 15.080238124452288 13.795921615367819 10.334667662685495
K 15.39885675001708 19.050414212784396 17.441663472940878
K 10.711163176142849 19.268479933016977 17.606714323775286
K 18.886270607448193 16.175380941781214 11.284297545882714
K 20.378369126113324 21.161036925518527 0.5547013057568876
K 10.249659562215998 16.57339383264971 14.021252421731218
K 10.450375155882265 13.95539977215126 10.316396266064876
K 21.18118589974741 18.262528096519844 18.545849487361437
K 15.76636047903149 0.3231682550968868 0.23752718506178547
K 15.00374688458871 16.42757923885994 13.946463502639748
K 12.531181417095084 12.616531419160596 14.04189727095102
K 12.759053473244139 15.128300760862016 17.82561468800185
K 13.168628555350324 18.072965136088158 21.235458872498793
K 17.59986228722728 17.810955732648882 21.23067022902887
K 0.1662323022559088 15.438424433490825 14.795311744666304
K 15.267247259045865 9.352331380078224 12.903706122410073
K 2.5054903430871556 14.702946213207936 18.668888197301452
K 18.14515410570694 12.555662439916937 13.73803621555331
K 17.843954532903872 15.125333899579045 17.40084907008435
K 15.252395244326863 11.309757073060982 17.278081601261558
K 15.524148673953457 13.811286678221846 21.165811336459896
K 20.37866817635476 14.189609818354274 21.185168878619308
K 18.472316653698595 8.392269822507542 16.03174412912908
K 21.20452035015055 11.645775364560858 17.278832436625002
K 18.350527489097612 10.231277442920867 20.353417808209684
