32
Energy = -25.58935973 eV
K 11.472649745455287 14.13752234287536 21.404694052929745
K 15.51103773659849 10.883637179904241 18.828400816290547
K 10.644922185677942 18.645826575877656 21.652691475883067
K 11.088040283515754 16.827739506480107 17.55579313330524
K 14.654692619508623 17.303319832229857 0.9548257684634224
K 11.83122745402701 12.512588707839553 17.202527500346516
K 9.982132976916358 21.193863702622558 17.728336547725764
K 15.297793346637178 12.586738764937074 0.7065586825195814
K 15.316411018235955 15.509820935573346 19.15790728547544
K 10.905929648969929 19.198043545665577 13.654348784155674
K 16.156602194481643 13.607621944226384 15.190414019076403
K 12.079701170822492 14.852257465443628 13.460914258380669
K 14.11343119888496 20.193425992682894 19.304160487671158
K 13.467027409769495 0.37302288435439146 15.18434141332527
K 18.814287865423125 15.25962384139517 0.3890047807790985
K 14.998119430172727 18.152990819194148 15.31251406397642
K 19.451775388062366 12.974836139029504 18.829468750253422
K 18.42584859562196 18.854645500849674 20.256125894363016
K 20.054084788999898 11.272405628051734 14.768554204695825
K 15.9063464611327 16.24921398831749 11.445967751702725
K 17.869707984260575 21.418815656891173 16.625476930162332
K 17.338669812329506 11.925105490546922 11.173506941768322
K 19.38829243848069 16.77641606778838 16.283235137041075
K 16.976434644214244 0.9368231095880086 12.540083932103043
K 19.033289745906472 19.216188037284624 12.55875973178069
K 0.27601596334684203 16.284338281553794 19.931610783624077
K 20.474625809539642 14.942184761118945 12.184182047791513
K 1.0926535362242396 14.250846439398195 15.88968876445866
K 22.12785047076133 20.273107208644653 17.705575458282176
K 21.405416065628 0.536907790920312 14.007098285778797
K 1.1061480740889997 18.302400225072386 13.701890027587492
K 3.6840438253516767 17.724280582930373 17.345600777917895
