32
Energy = -25.93351439 eV
K 15.538832833825033 13.125426044399559 10.932737235927535
K 14.883529947233866 11.549670307059905 15.369978093648268
K 11.383561648471975 14.737410781011906 8.936296213034145
K 19.213474083725295 13.190328585428038 13.912022788355342
K 19.254056481795754 16.928815377121737 11.388672897754073
K 14.204641431349174 17.775504752535962 10.549706244064552
K 16.02792295809159 16.039586476110728 14.23380504843023
K 23.223277752972642 15.139359378454973 13.720203792274143
K 13.36708837325152 15.315816775456307 17.687227690250307
K 9.639586944088439 18.094019030077693 11.710324393770092
K 14.819209822723645 11.687036767268829 19.989435065434883
K 16.754528765643474 20.457478198731035 13.578310151313616
K 24.1238680107195 17.49310193762279 17.62336626942518
K 11.611268739895001 14.283089482817543 13.326267387335927
K 12.752254455812613 18.566246724135215 14.86673657931299
K 12.452146311100378 21.876992242337682 11.978033013143735
K 20.149553601876416 17.836026706469866 15.734206283845044
K 8.977953112481746 16.497507338859418 16.427922143035453
K 13.602086491193498 22.646678712336033 16.44030216603926
K 9.385042411287143 21.094740012343184 15.36007661476737
K 17.918002273615 8.998549810758963 13.234261548451691
K 21.99278588436027 13.552649034338035 17.86909860248448
K 16.3448466842584 19.080927915431776 18.04673767648155
K 17.743498733248927 14.533715829174785 17.86046714771092
K 22.305772935568367 10.421991447122691 14.438078318970408
K 10.326098081517475 12.158117764913953 17.163774506062545
K 20.254757963662108 17.124346755319284 20.370606149403187
K 10.372624228263257 15.046262753094975 20.70206971214867
K 11.630426632343214 19.274887444772634 19.204095941948836
K 18.67184795776221 10.145092594735122 17.665548511855686
K 18.99358135649895 12.843918938291411 21.664720901941607
K 15.66178135912051 16.064612349226124 21.594819179135868
