32
Energy = -25.70661405 eV
K 17.93607597287395 13.49279716091523 8.419098194618885
K 20.10877638661359 17.356762517378446 9.435520843932922
K 15.336995942392791 17.29671130856142 9.095904541495509
K 17.742239964480596 10.652038321327007 12.125817246663992
K 13.846345231577114 13.25460512565789 10.699843836402412
K 17.62538065819745 15.15247747057846 12.177157749134308
K 10.907515398386359 16.677032293898918 10.304146070263878
K 13.464790018514078 9.621348974663508 13.246762039889322
K 17.553442840382548 19.629156431141368 12.623492067374523
K 10.336415632656099 18.52466987260142 16.053517016662727
K 21.149305627952884 17.15732853801438 14.087097867394524
K 13.771283411662303 17.2121340766457 13.352631199018138
K 21.410569234666006 13.30504697854421 11.291137596770653
K 10.983620883134709 13.92298420754093 14.15386179708269
K 15.176707694734855 13.011401037774691 15.104750190258041
K 19.728385752223666 13.01613579575732 15.656619618529014
K 17.2419972766796 16.803576721679548 16.04042825234195
K 14.4042749467269 20.532181779071387 16.32639017736483
K 17.046138747595318 9.42305280620851 16.390963473297603
K 13.245333473556288 15.829474284821158 17.761363390529198
K 18.985394525029594 20.86136149815406 17.13672966664769
K 9.649487055611692 16.02213394246328 19.866754537585102
K 16.96262043613196 13.473405021002934 19.30218344318197
K 20.45734779469361 16.589864103602974 18.9611430890617
K 12.136185072794042 19.764209645361536 20.058855205600477
K 16.302631039195017 18.23530864189724 19.7575510511972
K 15.871228968391554 22.648846152308796 19.9882684360143
K 13.721921759921756 15.376054534261941 22.101431980758154
K 19.51181051287103 20.357592851492964 21.616578070382122
K 18.311224452908817 16.02499359989398 22.96175495767176
K 16.591965107935962 12.03402647693181 23.329933447189294
K 15.364931888281127 19.623631538619524 23.454656654457132
