32
Energy = -25.86551793 eV
K 17.575338802551652 13.736694161922017 8.46158910947221
K 19.602309381924584 16.643745416356854 11.443201554518781
K 14.829379407867107 17.609918047255675 10.230923509090314
K 20.393658929926477 12.03045252701699 12.021233182089404
K 12.399396758800819 15.899190729845591 13.790646043311787
K 9.955955243896287 18.326843335391757 11.239688752728458
K 16.475526053065177 17.703132921726727 14.60013562695186
K 16.02164429742846 13.7305860809967 12.436129199137639
K 17.706264795937777 21.026388598067417 12.540554451504473
K 12.682137094034573 11.35806586632308 14.444411218430368
K 20.77451631490282 18.79286734423892 15.684392736781813
K 13.014205861999875 20.5872899461263 13.918297967760228
K 17.389528848932816 10.35709814115678 15.50938899292917
K 8.344935715118234 14.637288129277017 13.963346603924082
K 16.484547065888062 9.732308196539414 11.028796552983342
K 23.287755065405822 15.104157957897936 14.204408529265503
K 9.338736914431756 18.638755435426567 16.082225892680555
K 19.305680665431492 14.52745002842909 15.598173442172897
K 15.232643093336385 14.115520083717254 16.97472531786164
K 21.924874480514674 11.29378103398815 16.620149165510664
K 10.751708670353505 14.27505114588189 17.89808360671208
K 13.480219970457815 17.993797139302437 17.764637358439117
K 16.445437958659713 21.35076648371117 17.360043125252734
K 14.036045802606518 10.752205188843657 19.093392588280132
K 11.927130240784011 21.884659184244587 18.475790474290356
K 17.981875997658612 17.38186477553729 19.0990805316693
K 18.534096567397327 12.626261389027581 19.801677477214007
K 22.16743795974538 15.411722524276318 18.875434807074615
K 10.486883775444378 18.059505693416607 20.81826513206696
K 14.26496962023274 15.096069774355446 21.32546794779871
K 14.882527641184979 19.665771763590975 21.650858110340668
K 18.414156297009576 15.76231624904067 23.156376284684665
