32
Energy = -25.9070239 eV
K 10.283804696342461 15.640071135320799 10.440299082454514
K 14.727316793210106 14.72973390808318 9.025391979350346
K 13.437093957598709 19.17842286190418 9.28703906744049
K 17.700507803661026 17.809487563075294 10.889872815016895
K 12.703716361747542 12.338000207650182 12.445230942569534
K 10.632795826853608 19.72296386587867 12.771393358771945
K 16.120857575894934 10.562022742177666 10.270111978425112
K 8.426450647855175 12.016271699702315 12.870519188837894
K 19.200618651857713 13.867530489537494 9.268399435031757
K 13.712400708401082 16.825970265656007 12.740273337858424
K 20.279569002534384 20.38136372642358 14.871778049239303
K 17.20387332196118 17.596443927291418 15.339175531404232
K 17.025753943167416 13.791840278284438 12.892063449519172
K 11.053586677003105 11.583167542656996 16.61590195661588
K 15.1657184831335 20.98174274554933 13.212749738950748
K 20.9872765873059 15.810841092958709 14.058889633476726
K 22.48038539547141 13.437325376760413 18.385934726480023
K 15.720952424818783 10.386697319395026 15.596827282681899
K 18.507340362476825 13.657665546646752 17.06642346474585
K 20.639374081378552 17.558727641956676 18.436547928087
K 10.083566756013353 15.680024334261969 14.933326876872101
K 14.167453918389569 14.457726114456321 16.261284575556587
K 17.306179344984358 20.770908301997217 18.42679014191744
K 19.206115363863127 10.150814766298158 19.32866419306224
K 13.082234817563743 18.87974793355165 16.82845294548358
K 16.267478538632723 16.640324596846625 19.429265826747976
K 19.25824923943274 14.19684316346543 21.509046436783095
K 15.277242900265776 12.226211649795298 19.95150298501442
K 18.441190243473688 18.76108613042803 22.388464152995425
K 11.992830737082825 15.573139536678818 19.897246630739463
K 13.999462904757895 19.538362457059012 21.522084730481662
K 15.197278914448798 15.53719805983521 23.327724538970262
