32
Energy = -23.38629996 eV
K 11.241349607583723 16.601902838554974 9.220336045430786
K 13.487800225411549 12.320247636904853 9.776221271850263
K 18.033139024211742 12.59670629853127 9.399961188524895
K 15.82521669351006 16.46156126631676 10.198826937259277
K 9.153755381911504 13.278976564719882 11.606257450563055
K 16.42888038959464 9.030481939608572 11.935338041063439
K 13.028172340264248 19.695434119453484 12.260294874347863
K 17.762964660597905 20.331155319669893 12.573087718530578
K 12.493373121331016 15.30526255259884 12.969079955963183
K 19.80448482009119 15.878683643347308 12.821486363669706
K 8.989395738035494 17.835905869675585 13.12965276815662
K 16.36170995593554 13.078057250408419 13.165730386477053
K 12.556768303073971 10.866838902900614 13.96663344551494
K 20.3762278202098 11.386447882829101 14.322976096924
K 15.979826572074698 17.361071415325622 14.662370504688614
K 9.717467944514631 14.165056244756622 16.117816727510412
K 19.619069142798526 18.818949073295222 16.794901978111955
K 11.930641889027436 18.16484495910295 16.667318417347513
K 14.091248580412454 14.157988931707601 16.852566168314645
K 18.479455252395304 14.483412690723508 16.829996325322888
K 22.543290314929298 15.077778265348574 16.589964779943962
K 16.66068578584028 10.329291298515164 16.670524442499246
K 10.997523870427225 22.17771676308121 15.240409784823964
K 15.870105538083022 17.56112966403023 19.084622470599754
K 12.470657083681964 11.015362893577793 18.812922981348873
K 15.303786211649433 21.35605786684472 16.81296812817145
K 20.669979322699234 11.654253086281438 18.99231715506402
K 18.10302339162 20.59482219793175 20.797685195839527
K 12.528767213007605 15.366016207214114 20.728034153376026
K 20.033986581009742 16.231075248005652 20.551630173935234
K 16.591524463807044 13.168695045946784 20.60189075104888
K 16.230038501827007 17.013131804357904 23.21049305934466
