33
Energy = -23.43663929 eV
K 15.009832951914674 16.308148384166323 8.261277420477276
K 14.82757375055979 11.747347279378879 9.41901541814668
K 19.16234317566449 14.483152836984512 9.921514379866837
K 11.190955906917548 14.740157315062314 10.576554145469258
K 10.529580002002 10.419375796201004 10.582378425125025
K 17.729103524548986 18.667181502629557 11.276548007001448
K 12.853967536585092 18.720562851110174 11.795765432680103
K 15.359201428738185 14.893359310510752 12.200753836257583
K 22.275986686603808 17.416497261544162 12.441535888607204
K 17.963866287587393 11.2108418492848 13.036524663377417
K 22.34315718752071 13.022125134560815 13.408039959378607
K 8.673668567049734 17.325110955579305 13.6226476530192
K 13.273610954599013 11.036290254734352 13.741749827743423
K 19.02624486708293 15.491335624621417 14.248162814037078
K 8.983641046819642 12.690987168042804 14.345024638484443
K 12.181867021491634 15.416963893859979 14.910481016993309
K 15.790165539667276 13.228936148732794 16.294126161078434
K 19.726504514303777 19.73412864257333 15.721162433743782
K 11.652735938678038 19.654777958340286 16.433662070110373
K 15.616008506419329 18.268306323777775 15.120307207359643
K 18.01575554936859 16.341734365954938 18.291313522709896
K 22.377637054889128 16.16247092100768 17.079366184193145
K 9.365946023343398 16.09086783060644 18.274039677214994
K 19.91346637011889 12.282235426847713 17.363665007846357
K 11.938734882124649 12.206000443696919 18.15682974211941
K 20.181020070987337 19.241919627934223 20.261991723622376
K 13.783458874960646 16.36223292237622 18.723580399331137
K 15.918423789382036 20.366484435864173 18.97135280073905
K 11.938489012608075 19.147188129256197 21.262539334367762
K 20.37555430876864 14.783940408908803 21.368825516129156
K 12.03955720413035 14.733692080711638 22.194408875664926
K 16.071522458482846 12.913257842084716 20.640845642097702
K 16.21180773474106 17.193777801714873 22.355398903668203
