33
Energy = -26.73959641 eV
K 20.642437896104965 13.91436452854502 10.041329620050078
K 20.796639635302753 18.417376152232638 10.84179392227391
K 16.59609771826001 16.219809389273465 10.98712525796282
K 23.985334434370607 15.72996168142679 12.663856852922056
K 17.20773155025434 12.005624670614855 12.829528389006652
K 12.444299262910805 14.02863300943535 12.957883506875294
K 10.061084417659972 21.29233540988134 13.466565583956092
K 13.167071307049254 18.431252239948847 13.582317043357053
K 21.912134548105442 11.674657884124302 14.003649981473917
K 19.918579889076078 15.533791533999583 13.884635654000403
K 17.593029295915414 19.53623694169244 14.062542052260545
K 8.914315269526629 16.994584724451144 14.531102150785403
K 15.853476040394922 15.313312178888625 15.268907990168389
K 22.002774526722707 19.24355699320741 15.287708067992396
K 13.9911116519137 22.301058586719908 15.870452819605202
K 9.219053459426089 12.604973414328406 16.281183468320194
K 13.849029432045183 11.592211315294596 16.63174872229844
K 22.89296142394212 14.923908421359835 17.10512105911728
K 12.039717386983325 15.622301743967508 17.222613450306138
K 18.60400517912537 12.32692865512944 17.10687994387224
K 10.690007534712352 19.818825408726273 17.71111709627721
K 14.981220471504068 18.648111942260684 17.835188636597312
K 18.96350902142144 16.87335580366088 17.80563248626272
K 18.68985329231107 21.26695709263543 18.043876627069267
K 22.2408864979128 10.6435493204565 18.442822037019745
K 8.282867423219024 16.1136956333581 19.13914196798267
K 22.170110651374664 18.598689772155886 19.794623562726972
K 15.599500045437285 14.376543459233593 19.907404725978267
K 13.854571056878303 21.52006545615436 20.60645130826829
K 11.214585902972134 12.861547933972421 20.38260865059215
K 20.4170698281529 14.264913390599412 20.835923969363414
K 12.367557931825075 17.28314592205683 21.3662797483011
K 17.03682464565657 18.22316801867568 21.701432275424292
