33
Energy = -26.8114239 eV
K 13.348433080837955 18.102595659081125 11.65135468183462
K 9.560912770994209 19.893363541673338 11.078613899143
K 13.452074547827667 22.158916081174745 10.059542436448124
K 14.629845199673033 13.679102672666087 10.737243284895733
K 19.491542796751393 13.175617268603716 11.653771465732612
K 20.04783311420776 9.863693444448424 14.900235834139973
K 9.82453358630445 15.094762838841744 11.791501431317581
K 12.04354629018641 10.744851773070923 13.519925588260632
K 16.634013286985933 21.101181173121137 13.494993257874123
K 21.293827577911458 17.492626603941183 13.535224816235136
K 12.089162439274924 22.078215289276706 14.444181383421654
K 16.726457584455833 9.438060184991313 11.5091924103948
K 16.997141499202858 16.60891445217491 13.402876308575063
K 9.603387551197065 18.15805862339136 15.422514576217026
K 23.403233251102506 13.345212491214426 14.208829948953184
K 16.166800639307883 12.229877200042498 14.762672725343599
K 12.792115474108698 14.948038057716731 14.899892946726675
K 8.951511731615266 13.502738974143975 16.177533901370772
K 19.59840146380387 14.321534477127942 16.167926185736107
K 22.263975258281608 11.98023293488545 18.53576463110736
K 15.65137809710349 8.115496715785401 15.79231556128995
K 14.053333589815184 18.737026675115114 16.305398169727155
K 23.00326971490729 16.485687626780493 17.76333041734496
K 13.048501569307403 11.601720984205741 18.175621113379833
K 15.416467703771087 22.43021248066864 17.93865404627021
K 15.810521418204308 15.220577852613216 18.093402692077618
K 18.645831715914216 18.865730515586772 17.40348369831429
K 11.266854363498357 20.66340208799788 19.123531334534302
K 11.364390762684872 16.04588263764921 19.334360975196006
K 17.66181020904549 10.941887324416614 19.027162388528332
K 15.014465206858302 18.63006220961413 20.827449466533764
K 19.366990919227778 15.10499715000647 20.65382029117612
K 15.107032615666116 13.569319028006213 21.937275161933304
