33
Energy = -25.30218553 eV
K 17.09915882750475 20.81209688188751 14.55540464708618
K 16.72929696650551 16.837360967451183 12.685938814197504
K 17.21275909261152 16.535749614276078 21.66914437488696
K 17.28950944680537 13.033380729686437 19.015808376767545
K 12.114344463634923 11.298974479082148 13.631312281059738
K 14.860483088866438 20.245719035045674 19.01252652923938
K 9.918075361728443 19.05269301238786 13.191586975264233
K 10.522073427824985 18.998186702103514 18.353724440372
K 14.69900272540679 14.06563840371746 15.294912967278854
K 18.723912861291385 19.507661230699103 10.220035776307933
K 14.177385904478177 13.075300347484951 22.361530009229146
K 20.461122853959886 10.297627876325132 17.222258002771166
K 22.979008642398778 13.161671129832778 14.26877865699436
K 16.29864404590308 9.967028710720752 15.510656806612008
K 11.101940784155785 18.424643199770582 8.718313342029596
K 16.335875746286764 9.091504342829197 20.024227740505392
K 17.66478185010106 17.247414482343117 17.211576297462578
K 10.11394123819479 14.691220824208317 20.664748469638372
K 12.775301925510488 17.689257078100958 22.61966362672615
K 13.80446279789944 15.907094699266878 19.002325215158077
K 13.586095957048329 18.226469385546405 15.284987746224564
K 21.283903716239866 14.768400907609479 18.317364036356036
K 12.570090238130708 22.259607020852318 15.310658949647433
K 20.864064547713 17.580408059937763 14.075667233741633
K 14.074080826183478 20.287167944439897 11.217939338877052
K 12.81554676316386 11.519242793002803 18.34494629143466
K 12.390132611290591 15.53317417360188 11.708626706242768
K 10.427442948454207 15.094540364106127 15.882846275880844
K 15.985646779684076 12.63054834621783 11.303863901491127
K 20.009100670517128 10.30038004086714 12.554293784380393
K 19.999278289324533 14.799290734027858 10.576559638151892
K 15.453615700920604 16.625426690142326 8.576554011875439
K 18.892853925140113 13.66805481730638 14.844153760986465
