33
Energy = -26.97084564 eV
K 18.534952179582803 11.745388772040902 9.196928556255797
K 14.791465404109175 14.371977376574563 9.543101370229465
K 10.2019248368895 12.91121245539871 10.585802431255171
K 15.911185079585053 18.981835436604705 9.877266862507984
K 13.983405793421873 9.984782611117057 11.055961848791618
K 19.321973851671395 15.969546039880276 10.744912552627666
K 11.48500770266577 17.355628602455333 11.738376054891816
K 17.164755907586127 12.164603024246533 13.304914043880368
K 12.871550539095269 13.446537653473987 13.756323445151542
K 10.215094812542103 10.211937620886822 14.362821442808821
K 15.596489354279138 16.685145760885483 13.310189324553269
K 21.639415275738244 12.887066698129601 13.240013248086957
K 8.698490402597997 14.769085068332352 14.760580779995262
K 18.87954488940358 20.001536282831886 13.635975923489442
K 14.10868685262359 20.832123606514607 14.061725518088142
K 22.73258100570227 17.46467730766092 13.691700487743002
K 11.971327745693703 17.432674679503474 16.282215416998433
K 16.282146214591478 18.486343782617816 17.314154318313747
K 17.097337994026496 22.60308105196084 17.440182413005147
K 19.1343679527167 15.633527652891688 15.467998821304073
K 18.90583940224441 11.555399537129466 17.478743358036837
K 22.7206253747436 14.815749410796123 17.472203405618867
K 12.928484521918579 20.752175391685554 19.28459761910286
K 9.48753313363091 17.034388489018582 19.728794826266768
K 15.270204188010652 14.184386370035032 17.202650241627474
K 20.793309979012367 19.277507764282248 17.8228111117927
K 11.041458933274008 12.86966342420743 18.155662943876507
K 13.985104289292893 16.602146494428936 20.85795148500365
K 17.14224474833227 20.070895798571627 21.23653871139754
K 18.61638057664984 15.560750122550298 20.067737009520176
K 14.43945174451641 9.914088876536844 16.282444467754946
K 15.14525227280444 11.907866050428595 20.74780854101253
K 11.036578497981044 13.65044224325526 22.425082875946014
