33
Energy = -27.18970656 eV
K 15.282196485073866 21.388629103077676 14.119481601412888
K 12.920890538564038 19.654898272520306 10.620491642257177
K 17.844618574276257 20.54508223472164 10.21732278077492
K 8.860853994026424 17.521554107105466 12.686571412138457
K 10.599345166164607 21.352426239060826 14.805312627791302
K 12.964348494236702 20.129025495799 18.620015949394105
K 16.798272730023996 18.21938019229525 16.987248762939217
K 16.37602769071054 17.290002311151593 12.442663780627909
K 12.561430971689719 14.95281477456771 10.994364902322804
K 20.432071400709024 16.314268915874035 10.603748646453113
K 9.15914592215196 17.523882961555383 17.53911891841857
K 10.312276854787447 13.709482364983995 15.166960727405295
K 20.148571091188764 19.30526532761242 14.114579884602941
K 12.663882530630186 17.739463043271847 14.694717824635271
K 13.315790652765019 10.60474031098689 12.906275964740411
K 16.01471830579785 16.765705453369993 8.183158111588243
K 19.329620321125194 13.316838752643774 21.971543605412236
K 17.504489652947534 9.6128544617432 19.78530111267333
K 21.24956723935048 11.845587618575477 17.483847208595247
K 13.374971540931055 10.956944527384538 17.62583609257707
K 14.403535370753676 12.913896245254973 21.770585206129702
K 16.36265593524637 17.089899292057876 21.306421117761253
K 17.161162674660265 13.69254600656369 18.346568322555413
K 19.10185184677396 14.838981329561124 14.722511088084483
K 17.53329680933654 10.316346090793031 15.15009820133456
K 23.218856244871883 15.59140237967138 14.491296949667323
K 11.5974371569932 17.073422114144808 21.985808559996872
K 9.910375400702536 13.330696166176123 19.816237908985176
K 20.828506018729623 16.378854605030572 18.582882221815964
K 13.251543503928096 15.611199555634592 18.35198614391915
K 14.852174966115204 13.97962726607301 14.720420124041702
K 21.297081494172893 11.815367461506215 12.593778808294104
K 17.095283160459513 12.945765759125836 10.919694530547712
