34
Energy = -27.73563771 eV
K 15.634845782529652 12.545493169360402 21.90531103672942
K 11.859936439209662 10.228338301218033 20.17040817385243
K 19.776834713132608 11.08425160565597 20.13210205122256
K 11.656505996916204 14.80834079854554 22.09736519649156
K 15.604509183264865 9.950972280962374 17.67025447801594
K 15.307060589482436 17.29078269980407 20.905710352651173
K 11.536489935633002 18.21917277663699 18.253374816858972
K 17.554082948630786 14.197801485838452 18.243082803117492
K 13.05025336217949 13.853359060661116 18.23969799226665
K 22.062156182934057 14.374630956473835 17.88456994143216
K 19.54027447815324 11.402288909058713 15.267444497874317
K 11.795315662453616 10.682956689524215 14.903098936153329
K 18.655043061019683 20.468722533003174 21.35335225707076
K 15.640220719824743 9.511697464839282 12.235954178481222
K 19.696431770493454 15.633938102859396 21.72227132450985
K 15.581217582783898 13.196556890090704 14.473778088455992
K 19.762693800438303 18.30437058560073 17.862461162132913
K 14.876413239198442 20.151275937815882 9.567751374819878
K 11.124250100278779 17.440560835654132 10.302046963979585
K 18.88514330601763 17.888239785121144 9.872169201793158
K 8.447898368585822 18.154035233573925 14.060187059000697
K 15.228368788040266 15.69354668664146 7.7263588664041425
K 17.82969888059037 20.514675958871575 13.732593812891329
K 12.688005650363209 20.066521562665834 14.04168317477688
K 15.249481819969798 16.72994399519444 12.05651239864098
K 11.703016239923164 15.406637889393833 14.489180336405909
K 19.442247137228243 15.949015184946646 14.100550260616949
K 18.087968030428 13.339063972194872 10.681513320950957
K 8.691300902806352 13.761245555563754 11.82927842322569
K 15.518683652516689 21.246176978160406 18.236081826655177
K 15.609860734540515 11.058985272165705 7.769487460247234
K 19.78884879946732 22.770950624324268 17.486432558245383
K 12.897205738798789 12.949192677669213 10.710229000934994
K 15.55778954521364 17.46631068295629 16.357759816140828
