34
Energy = -27.6975032 eV
K 16.42780137876155 14.005598020900617 7.6552018637604125
K 13.232327619036287 12.089650170046852 10.559801389372218
K 13.949041102418851 16.625843814647748 10.149721080376558
K 17.392128799572692 10.198232938620261 10.054038943304578
K 9.81259885329914 14.767345544579369 12.327276600481602
K 18.41127338542402 17.68706483810507 9.853321833644177
K 20.56512824306814 13.63371757625021 9.603962903937802
K 15.734306640744618 21.147360761713173 11.545033020574357
K 17.201407359886815 13.831191017226047 11.980983636708206
K 10.623111888816815 11.349654616577839 15.322261455224947
K 12.114824923591518 18.84273115188973 14.129245621623452
K 20.729002915901425 16.320277874149433 13.797854487522002
K 13.490775256815661 14.590477626805454 14.182672844175974
K 16.440419761485238 17.74685682453822 13.779660895450466
K 15.217142218587334 10.446495009374656 14.557224537680053
K 20.916602252518757 14.772112402884112 18.650606641627512
K 19.58134072766584 20.90260040544406 14.08826745354273
K 13.667834366219376 13.041580039874347 18.17912125829165
K 19.294218707984946 22.323835494655626 18.61065360096205
K 17.578972798510623 14.014659141803552 16.181992243586183
K 22.51326075138594 19.210444618976947 17.221760786215615
K 10.096339944532538 15.637335227068016 17.08868774815059
K 18.493176359405815 18.194963648234612 17.52724970854143
K 11.547355307116886 19.97502337173229 18.929744784842203
K 17.38157191480553 11.001074450062477 19.117124524196146
K 14.341109588350186 17.20088558953259 17.593266877686858
K 15.500059280635123 21.408282906532172 16.361500339433533
K 12.87826812076966 8.97687021355576 18.55562296576288
K 9.76078221490822 12.181788751313261 19.93251470426681
K 20.28523308967527 18.724603794508624 21.28847694719257
K 16.852864751201864 15.274083496881918 20.7821285087561
K 12.1978291632281 16.035616812621278 21.24146234199665
K 15.79824726843983 19.875051312412605 20.76132605048354
K 13.759974134252008 11.753021625496991 22.17656248964439
