34
Energy = -27.87910787 eV
K 10.882159452093086 18.449253420717856 10.499984019420964
K 12.905723826464031 14.246401023879375 9.033622686767412
K 17.49455061401497 14.016702094331372 10.739397065629637
K 15.068412510265798 18.077783315603398 10.877747203260956
K 15.297646939428269 10.109799549009045 11.44398057433124
K 8.882742069835764 18.795344079747334 15.119267676748073
K 10.731589629966296 10.914337517195404 12.030499593459478
K 9.140403820894402 14.990820836648492 12.171676294873373
K 19.516383531796276 18.31218847069854 11.919611514060078
K 20.022499357475954 10.367571928115268 12.389838188848508
K 12.295092903001235 21.708827716392598 12.951910533837642
K 13.466872354817328 13.944777356687474 13.136807540774011
K 20.91039033889153 14.56082270724404 14.224377604974103
K 16.39737573121538 20.88603982108861 14.51385756864352
K 16.856274230212904 16.425423374014716 14.426421837226957
K 17.100750335231876 12.162889687138785 14.887161106733839
K 17.355708518136996 8.038982277265749 15.37165743646004
K 20.770246217954078 11.090881160912215 17.12579448791116
K 20.053380056832832 18.867111024022737 16.573900573662602
K 13.228170714756036 10.235564337272702 15.789196177747948
K 12.778117776302205 17.78917436791696 14.826244875823694
K 22.510903685357334 15.502754121527987 18.498942186306987
K 10.138995102267884 13.975374147077751 16.226392056961846
K 18.398210507212813 14.84269192455256 18.07772869114558
K 14.02421044203485 14.1334876624513 17.664287011941763
K 15.728824765999732 18.285191627427473 18.155844338379268
K 16.56925201756129 10.902213582551292 19.201638006516987
K 17.508912320866102 22.124441665444884 18.781577365532414
K 12.806242264300097 21.477094549895213 17.5673173153243
K 19.097375235478772 18.15759030171401 21.08871269923378
K 19.760285940878745 13.3311739099967 21.62315915652641
K 11.517608701152591 17.40532120926275 19.188454338292697
K 15.503708367000618 15.322467847206443 21.516472176548607
K 14.733084771516936 20.00160643620467 21.80862514730896
