34
Energy = -28.11568558 eV
K 12.097401980967705 13.976148987359503 8.695819795267733
K 16.621217180356474 15.171113652851645 9.804470233384617
K 13.267881442503187 18.567870327041035 9.514896398449817
K 18.125806431717496 19.70277331093373 9.830880096464506
K 9.09525628957466 16.623817577421132 11.322102268747653
K 14.700169708975043 11.021331336650377 11.717795375625121
K 11.664272884296283 19.625854012241508 13.98596445470896
K 10.065034323357125 11.759568797707836 12.853177991087593
K 20.40086071281627 16.70173445221702 12.842776793111021
K 15.137775783871854 22.375538173035302 12.40691541062662
K 15.972021328264667 18.339384919925937 13.173611005236424
K 16.947910026031536 14.094174717419529 14.16321052714253
K 12.872569392964964 15.245532271330225 12.56424612142821
K 19.332791508420684 21.109341438430242 14.393299465758895
K 12.838777110751645 8.323124475060865 15.146812024192368
K 17.318350306982566 9.898441067173495 15.907866480279862
K 19.663802541992375 11.942516290529323 12.04386701244613
K 20.784150096632857 13.372220439903106 16.61259587780798
K 13.257463087627531 12.431976467036005 15.924880433693593
K 22.534037988815474 17.79559027037602 17.002044156484434
K 9.587579361885464 15.451713755098746 15.877747975600455
K 18.311736469249002 17.414969440359283 16.834203616599364
K 13.935123944912279 16.72328502494147 16.64671426479748
K 15.458432529635594 21.07944536249389 17.000720559454436
K 9.80500619727857 10.945782271882024 17.718731014448146
K 16.604810836207722 13.675974431044938 18.54036522494389
K 19.602324888850248 20.44155624638541 19.518496927847345
K 14.345043975564472 9.951603053140314 19.624669801854328
K 19.222723542653014 10.932435840728226 20.358721399335067
K 11.332628463026047 18.940632580234695 18.897067049255384
K 20.046129017620366 15.793698392671418 20.710348945334502
K 12.184271132459735 14.31219579182503 20.055460011515947
K 15.783233028851415 17.787696563166875 20.713707365052905
K 16.197288616584043 13.584840393083237 22.7096960537156
