34
Energy = -27.54583726 eV
K 22.313319440003013 14.328435624475828 19.665984673491444
K 14.039046756807386 22.08966668865431 16.967850169627678
K 13.509902317488626 20.896102259485843 12.38599938052863
K 17.56166265607101 15.570291167120818 9.140469505866402
K 17.53319043185257 20.110483415421907 10.686543229589242
K 19.305832383445512 10.423659981103127 19.87360619293096
K 23.257131051249456 16.411687033348965 15.349909374030934
K 17.067395766840715 23.6179452145459 13.635124881120976
K 21.48697556175862 13.74779714349561 11.657136390732559
K 10.558692412427893 16.402005272130186 11.988094140507057
K 9.362114877339224 14.584970150217064 16.970593908463382
K 12.566114287427844 17.908147944650192 16.056337822249066
K 17.084357261562605 12.747340293313151 12.718218020930703
K 19.390654620289165 16.86811740132732 13.168502800481933
K 13.396254474612846 14.294111513749487 18.800148473050008
K 13.343310078456128 9.585642703048839 13.433329765522803
K 13.50425250459611 18.035518802523846 8.651065477077587
K 15.388833397361479 18.30110917495283 19.55094696948283
K 15.019250033214885 16.857341819661993 12.383664375335062
K 16.868519209328547 19.696385763821677 15.251293611144094
K 14.674459391434779 10.912534373477445 21.135585045669558
K 11.44791845280306 10.540602949040133 17.450639452674164
K 13.012245383142703 13.62718767496121 14.565334673519052
K 17.70312843444331 14.332604789065861 20.304846479124265
K 19.939726713899347 17.72129317204334 17.79706486603219
K 16.08909818517354 10.941372517695672 16.88240508401359
K 20.117636641187566 13.073858558197305 16.117685158753975
K 10.249921027018974 12.980211696483524 21.283429202905683
K 10.904068156346234 17.499540561545654 20.35589445657288
K 16.542326872763518 15.458617957128043 16.228161425644572
K 9.414717367460412 11.88986834349156 13.29500957270294
K 13.907012566733206 15.15104724540882 22.901941486745358
K 13.421234158024651 13.522042104960518 10.080283472407816
K 20.92114684103939 20.773908403056314 14.168350174674558
