34
Energy = -27.7247095 eV
K 15.869066786263417 11.82974092390884 9.020185873884564
K 11.78561798016759 13.740397604171328 9.777330556925445
K 15.147934687548142 17.07907006578884 9.431435709419484
K 13.218525788050902 10.24304999815902 12.765699850400566
K 19.437008764124748 14.630616319999865 10.20758194643798
K 18.97017969041485 19.654945959893425 9.977661442087983
K 15.198772672971225 20.53655077586985 12.49983364274352
K 15.320866303747062 14.282592277386037 12.548255415323261
K 11.293136649739694 17.04652526764331 12.935860308929108
K 17.996023921734984 10.947194905394696 13.076543629726528
K 22.55147547864213 17.973113308695684 12.168835679660788
K 9.227336814668993 12.958190850158212 13.363964219967428
K 14.653278314758703 17.59953603555181 15.383448200462494
K 21.437825511436504 14.126490842113148 14.479878228108554
K 19.61090213147143 21.25406884949381 14.628670092268038
K 18.18460094510133 17.774245915563842 17.883373501898323
K 17.51804539320761 13.628167759739561 16.524583644488025
K 18.443877769164914 17.20799137300325 13.57721095968396
K 12.929583835430865 13.56466128586726 15.87772553367967
K 10.436800990257824 10.150107732050358 16.77414297140041
K 19.606963997667354 21.2818066579688 19.645420916177255
K 22.394052010280383 18.204077205110583 16.741926499675273
K 9.478920174333078 15.277588313327948 17.508540178671602
K 11.634116692078102 19.376688010800518 17.5856840810833
K 15.761541601187087 21.557149655682256 17.034254689993947
K 15.084028593190133 10.07683141919176 17.218595173452773
K 20.997821670146266 14.546591227686667 19.15348126018419
K 14.463658042392892 15.916020449443138 19.274316831609347
K 18.556029749097483 16.96597336403074 22.1729684867993
K 12.276083334396056 12.34989512588798 20.45259464754793
K 10.898069937666424 17.131689520142725 21.52295823493429
K 15.018088579871831 19.79913196715541 21.142441991487036
K 16.982857755905023 12.700770062284018 20.86552501640815
K 14.494246705020176 15.465868242970311 23.65640985661609
