34
Energy = -27.56388012 eV
K 14.141870977112134 15.636370381904452 8.062870636745943
K 18.29381420633444 14.050519475133127 9.54140735959703
K 18.95317536260309 9.474677949862867 10.468388803435422
K 14.789519990463626 11.302400189440279 10.173988558725608
K 16.626451305455916 18.939125100375893 10.257126129754962
K 12.231087162384421 18.43200343679697 11.359674957830206
K 10.96333619543603 13.93918140159264 11.17727050636335
K 15.094708583946401 15.132767052278234 12.119867274452622
K 18.265601497963868 12.108756447275834 13.660479619231808
K 15.187304691063229 22.63404274039812 13.18447473224086
K 19.316557184669037 16.566241639633134 13.599117672628719
K 15.958790207610717 8.30120759907461 13.758345030099713
K 19.18252144747585 21.19685736003223 14.854760414582957
K 15.42391854668732 18.707862802675326 14.561473613627319
K 13.455699290196865 11.726114537941188 14.324405956955228
K 11.6218961181092 15.98710473336571 15.06392978652267
K 9.393638220110516 12.09756014724697 15.396994844572081
K 12.588785767282072 8.931063065155325 17.65075592640889
K 15.861896941044538 21.842259499449984 17.936814893417708
K 22.399531154116023 18.43650230776667 16.894273513534067
K 16.61787347773275 10.734189576329968 17.70861971721612
K 13.942436269384086 17.519834169090384 18.543009520706427
K 20.304969174223118 14.117843320366719 17.407325515052076
K 12.531925520283924 13.328215458992776 18.58107644733551
K 16.03615671994774 14.701404704241972 16.22710243241477
K 11.959393277165093 20.73058903177212 16.103876105092088
K 18.269349082068953 18.05185382899432 17.805739279718257
K 20.213029177386616 21.492332709969176 19.43316840613325
K 12.462153577772796 20.435107024471726 20.965270184530873
K 14.23494398064172 10.927788157617845 21.739869589263296
K 20.958404036372094 17.25922764982003 20.996287895195334
K 13.32826038194285 15.913598741893981 22.52548053231221
K 16.97624482162912 14.573319141884696 20.55583385021365
K 16.801687084753436 19.159010048523776 21.747851725457334
