34
Energy = -25.00181787 eV
K 15.706603569590477 12.084736947660085 8.98597798043512
K 11.804194963097695 13.478680140655108 10.431969514944278
K 15.156490986175061 16.399373195011737 9.782215173429213
K 14.019389306408154 9.130133713073258 12.18704493918041
K 18.9995033920724 18.64119562104525 10.262759768324562
K 15.147663992475172 20.534235348048732 11.694211893913828
K 19.172540999709906 14.296005480624066 10.79740241618723
K 11.315943695228796 18.033824831752394 11.145685126433117
K 8.520635743515985 15.081381573640504 12.77770882161638
K 18.471080431382457 9.955569693550368 11.70577195342689
K 15.26179982201122 12.984932339043889 13.371326424290034
K 10.60952054453569 11.355919869931393 14.126372960103854
K 17.05949832580438 17.159072541037315 14.008150537941715
K 20.379079904383744 12.584611003379305 14.694279446567421
K 21.483029813284062 17.02359607876841 13.807388424817262
K 11.612103641818292 21.233666866813614 14.170404007746615
K 19.26224995547255 21.01896618914191 13.924663606040692
K 21.742290994910032 15.26781713017213 17.836769295863878
K 15.50732143704316 21.10947993843616 16.32232551107118
K 8.669361560036814 18.357080721621134 15.861123937185647
K 17.28580177684195 9.342320383733345 15.85869940617742
K 16.60283413620124 14.231698318001284 17.581894868406778
K 12.550427499298515 16.39808953057092 15.384310148477676
K 11.723136100857923 20.491491308362843 18.452308553206855
K 13.08990337877774 8.444726913343555 16.532433344408958
K 19.14570315274777 18.75023461428003 17.774612341012485
K 12.225719478920817 12.33208512214486 18.24975024932564
K 19.7673893558058 11.49556362132991 19.040239087280245
K 18.69865311326397 15.575386699374443 21.07691306294281
K 15.61969612879649 10.169202118189624 19.84247472103502
K 8.453858305109692 13.993706447008703 16.99371901844343
K 15.195437343256557 18.20111888435855 19.788700841223047
K 10.999063560718401 16.395653401622162 19.743196443986857
K 14.481013544394228 14.18738336821981 21.52613612850144
