35
Energy = -23.02953828 eV
K 16.605464287764008 11.85996710322803 9.142268234983804
K 15.406355044221819 16.130690918178416 7.653301178498959
K 12.23782043330823 13.104149818863373 9.379261582245194
K 19.392395265416045 15.498806056359507 10.143380724735094
K 14.088254442442722 10.792849797337956 13.159394621935842
K 15.251935411110384 14.845368819148323 11.675300995710403
K 12.951743822529638 21.54681155838221 13.017428912879247
K 18.74154239451358 12.175035847508557 13.450768847999637
K 12.01447294662079 17.69261418281574 10.567648504587668
K 16.534460455261254 19.225062825443533 10.852468586852863
K 22.32050339320375 15.02507931273693 14.733756192057344
K 21.05663268537339 19.090032186033493 12.608550052807573
K 11.078568979337888 14.380939925973667 13.828825375262186
K 9.785420415306488 18.67497737016144 15.294846077048879
K 18.247709488481377 16.642456606230915 14.248089949377443
K 17.259122360203108 20.828160082142738 15.327318458119214
K 14.022178474352 17.882669382172413 14.448305987845405
K 15.207646478814342 13.822520817863603 15.879476157025984
K 21.68893526165532 10.99599592576998 17.02968200821082
K 20.77618782735122 18.360621799934258 17.627486817853484
K 19.08901897456803 14.135846900799198 17.7523327663963
K 13.14691966411525 20.52194974719063 17.998417560252776
K 16.81497673523921 10.303492994437878 17.5661495112128
K 16.39908640261675 17.45162903153041 18.18901111578281
K 8.333187920685353 14.857437990769482 17.674853313231566
K 12.271946116168245 16.11564168684009 18.077045954598084
K 12.09977081923004 11.698504541846363 17.76022720726154
K 22.891918830524645 14.741943152906348 19.48828368538418
K 17.551364833538614 20.757358924767917 20.286797601346322
K 9.564697607874734 18.60027809271956 20.138037315664402
K 15.362181314401811 13.552619850825446 20.568407821979157
K 19.659565490453797 11.70783433803447 21.122651838912777
K 18.93812064558531 16.435460555678596 21.5786563201823
K 14.034833585597456 17.89892627185213 21.821810641286135
K 10.85621194117411 14.327416332557458 21.590908829512166
