35
Energy = -28.32990702 eV
K 19.01721120336404 17.580779185062827 10.76401783511394
K 20.106614935521574 0.017902628684457033 9.679075811168303
K 18.109028696808895 13.495430379736648 12.535414786293114
K 14.937852940308677 16.824613686980406 12.811916102869114
K 16.256983229408604 21.1766939524832 11.88983120505017
K 17.00068852886865 9.499010985688383 14.381789680150398
K 13.870879942374875 12.672137382713428 14.621878231358432
K 0.7926733241411944 19.587531509331825 12.343540418179762
K 10.748956159612966 16.10335466346414 14.835506415651636
K 12.212614043600684 20.429888271720003 13.877866343080573
K 21.910302663648434 15.459349285303444 14.024950773608305
K 20.855556892821312 11.351823557327265 15.745757979716744
K 8.024927769246435 19.727285549950913 15.514617992161254
K 18.542814893919584 18.435157795282084 15.165629162244846
K 19.939006524851628 0.750955446062319 14.194433049831751
K 19.003425745325593 7.672422854311292 17.886440776525973
K 17.397127514580326 14.204071959051879 16.92635282352033
K 14.191631643575949 17.654281628584354 17.2546227888646
K 11.34213735459212 21.03810495019797 18.28535011430043
K 12.151543932327467 13.71191681429104 18.640994653756724
K 17.99241517988551 17.910618032426118 19.702762181087095
K 0.7568353291492118 19.33709395770828 16.749534123338666
K 15.727171759808318 14.061759178651304 21.35994668464677
K 15.67034565339662 0.15607256496609087 16.292418579421337
K 15.302876423877255 10.347610335661933 18.504258578577893
K 9.117157131610774 17.14443051563465 18.934247143868397
K 21.731778898646475 15.152827613980849 18.477526539168018
K 19.373334783626596 11.516218584196093 20.103049245821268
K 15.10757132609157 21.350619347952275 20.801568175430525
K 19.584608053177462 0.20074508460668072 18.655055831018313
K 12.65851159108036 17.521922776371984 21.485742678337264
K 18.97752652587111 21.29003641360212 1.0600345009431564
K 0.3976334796070095 18.95300882199331 21.131499893708817
K 16.25252382603954 17.87190965456471 2.047943890530832
K 19.948194070585757 15.373570495555166 0.878879269661563
