35
Energy = -28.79377554 eV
K 16.332911687371087 14.58319195943548 7.868162578632378
K 15.323880982751684 19.141847638224455 9.531726549989347
K 12.475419039230907 15.423285955536532 10.493586298867726
K 19.85875719038041 17.185040254070593 9.479416768558268
K 10.80734684473036 19.958844918461846 11.565560253436116
K 14.991967819764879 11.352760903905265 11.176384043905813
K 19.709373086441165 12.433069884715842 10.73738757735427
K 10.60112153489448 11.736077871020306 13.095554987887963
K 16.822682092139473 15.651685329097724 11.950088879861422
K 14.283403019488414 22.575642087305 12.947450016312157
K 9.893158035779667 16.462318690669534 14.749536490769442
K 14.02475655154356 18.414744652561193 13.793692774155732
K 18.39909487358698 19.842261231663496 13.180200431684506
K 18.179732842776676 8.523053428722653 13.38115365102386
K 13.679453826874516 14.079251783622913 14.607492997036617
K 21.014030705588183 15.779438233936235 13.96621189023246
K 17.793426776143686 12.527071130146924 14.781837583127569
K 21.736576822448207 11.100859207620106 15.028759686707321
K 13.33208093746042 17.050429132238623 17.933827137969743
K 20.172848586298173 19.274783804473532 18.01174742302353
K 14.239143042922686 9.760010032593565 15.69653415549996
K 17.36382066576756 16.76724739684056 16.282979389157244
K 15.613747321917755 13.321856871098289 18.489765319155133
K 20.2071735427747 14.045648418581159 18.45622943800356
K 18.273202203009742 9.686839839663287 18.239463375359385
K 15.756371577411235 21.012136719196835 17.168148462194875
K 10.964370346655663 12.98011410776036 18.0057876528934
K 11.125162848683223 20.703148130153032 16.387736043630046
K 9.465459559995432 17.34736648467064 19.51550342141069
K 17.45531766314678 21.362762558939117 21.208755198177606
K 17.435568810693518 12.500651021711741 22.241590401484636
K 12.993675710224942 14.781515979829807 21.85983477030364
K 13.88508784217167 10.117364566411135 20.57736863138639
K 17.028307298592562 17.00795817533845 20.88649489745029
K 13.148698266907406 19.896851556350875 21.091160779923495
