35
Energy = -28.50636395 eV
K 9.731027783168052 17.918058773706395 10.869191083840077
K 16.80907442490566 17.130392467877158 22.02238669513065
K 12.18912118221434 10.894521725495599 11.982916591795187
K 16.55200290461303 12.14337303975705 11.005590026186981
K 11.096972278854668 20.389379838598835 17.86993054514093
K 8.04778210314069 18.368648902824773 15.095757198775505
K 18.658765864447886 18.916545140144084 17.078401150991446
K 17.64921300792694 14.448900654261829 18.260008858773542
K 18.087498384927542 20.459521326113517 12.608333805687815
K 18.70323701123393 11.529182035704466 15.158769786021876
K 22.93404281791606 18.819194556604504 17.71419799757494
K 9.607046703428493 14.169894492265753 13.69812059543385
K 21.81279678604767 14.607478284342323 16.294251798054134
K 21.370305643833987 17.688069581829374 13.314765386489258
K 15.576557304902797 8.777708628710363 14.07485498404517
K 15.561593547217429 21.125860838297193 20.101574573014986
K 20.006983231104208 20.246614748493766 21.133123348607835
K 16.12860437738191 10.11296428241244 18.718278371666056
K 12.270450483411757 17.98734584218835 21.611451189781608
K 21.00365423728934 15.845663156179583 20.75688785356662
K 20.619293018711687 11.265439642181208 19.23134239002951
K 19.545851035870733 8.95965676919592 11.666031099953235
K 14.553482676583167 17.348361393327625 17.97524780606486
K 20.895272432379496 13.468345987836132 11.773849939751347
K 14.147826063703201 19.674021637666357 10.884004071553127
K 10.824556009539288 21.641040393629165 13.437934354964838
K 16.971713588017586 16.003144821232766 14.017441149982925
K 12.47104107591057 17.485573426250905 14.348469827246209
K 13.309344320492784 15.10921197175705 10.673590387894638
K 17.767145154748846 16.655225438598297 9.926564280483984
K 13.657904503180125 13.57219130055495 20.471894774157647
K 14.86641589504473 21.295811325363534 15.439850306350726
K 13.782140679616013 12.963795374434044 15.671220126443782
K 17.71017342950262 12.591096815694026 22.327541996339637
K 10.309222249115592 15.615877596851574 18.01433785858687
