35
Energy = -28.62874623 eV
K 21.36518908304219 14.459046257680177 14.414033205398864
K 0.10177765746089788 16.609163739230063 10.466916994974012
K 19.931000606817967 20.366615875764232 11.121626116021629
K 20.306409072972365 12.587099725762373 10.334795522491648
K 21.771835404223694 16.86589852291487 18.45762286449283
K 17.732241910774963 16.283764504450385 10.792303015671777
K 0.7942943732483964 18.81329202774309 14.380067280070952
K 17.38494884009933 1.7939246988095916 12.589070201198474
K 20.64248915651253 0.2266889160189259 15.475605286288594
K 19.054742158609162 10.553180907234177 14.44156981645311
K 15.906829541156965 12.210227840641444 11.461507385302705
K 15.342050254369978 19.967416726109953 12.352778375087805
K 16.81787037210003 14.325429818883476 15.537146325821142
K 18.660079396971494 18.373276477861545 15.181564989616671
K 19.985586921043108 12.720120572182985 18.636085064183273
K 13.329556690479498 15.785703200650259 12.563620635890947
K 13.15326926673226 11.84525703010807 15.13993390355759
K 20.64327392855021 15.186624002986619 0.5513537023415042
K 16.279137100260506 10.369339327299945 18.111004070129198
K 19.38844708455016 20.513163172491762 19.60434963313946
K 17.42367682690089 16.466652609798867 19.758483265288003
K 16.250435442732886 0.004945660695966677 16.645650052300894
K 14.359165714372592 18.033598171544938 16.67475451597395
K 11.062648693143641 19.507998921030325 14.01884897679317
K 16.993138897307592 12.556348516388882 22.16218205617971
K 12.981377994107953 1.461625346247944 13.824385286260885
K 10.569875501154002 15.531006065317612 16.23372232859568
K 13.66691700086301 14.002711918818598 19.199832129407017
K 19.938024555648195 17.03966428276254 6.63922806805
K 18.1253438899402 18.68607643642781 1.8388878656270022
K 17.399814979805576 14.781119550693566 4.031838785840821
K 14.985463707062499 20.3227372043896 20.918231813724606
K 11.846699434652798 21.822794047281466 17.90732798607041
K 14.410757341126605 16.283787722467725 0.9454916118955754
K 11.177434256159637 17.9159921474206 19.97600503650411
