35
Energy = -28.62753389 eV
K 14.458200889395489 14.447501479794711 8.434630274002176
K 11.827225805564108 17.472794865925824 11.400798078080337
K 16.736716847265683 18.349470486547684 9.909142319266344
K 18.93126019309309 14.28076184094028 9.861533869308785
K 21.288370107011556 18.274542610726044 9.953347766565832
K 18.63977930519818 21.580401321604032 12.94011283081812
K 11.49204523246263 12.89908873140195 11.469572319147481
K 14.919944779532154 19.332130106824092 14.086972256607751
K 15.348846106686464 15.126249276350967 12.591266476382676
K 22.529043679605177 14.460051841997114 12.553939258189109
K 15.541353557866632 10.735595262524802 11.395644772021688
K 8.349559321434175 12.547816846345704 14.470296213135587
K 19.347686687603677 17.220744231566854 13.67104138090016
K 20.13777675281556 10.186733207752905 11.43775245188581
K 11.445859271299597 9.099654191437406 14.471538784412953
K 18.844923933179366 12.62227858976034 14.537824516708847
K 14.110510466517265 12.170591103771464 15.611579426064223
K 16.729367992089916 8.597625425125825 15.195914555235358
K 11.551353120046759 15.649962661191111 15.589037769487955
K 16.508385002093295 15.609709234877588 16.752152127262026
K 20.909777770187087 15.598355306553469 17.586064972541465
K 11.015806139426607 20.152833750091126 16.058040670832643
K 18.621892868569713 19.772795805205167 17.258248836311992
K 10.184671333923825 11.859078015371027 18.25535770539035
K 15.163153166520035 22.547705859912636 17.161238026756003
K 17.799575435110263 11.806885072396375 18.75289406679242
K 13.706583133857947 9.101688749336704 18.628023264869373
K 14.153979298858296 18.277964957381357 18.561176893032826
K 20.912766268292444 19.011658792270996 20.921078930068354
K 13.725125005658667 13.741634178477417 20.11065736114088
K 10.058561880088847 16.7523614231682 19.720664833218482
K 17.624047711966693 16.04485955548341 20.9644161205792
K 11.995122929599516 21.277801054507208 20.52626109441323
K 16.700821177145905 20.844175018474477 21.311535420178366
K 13.670190501950053 17.526782816820432 22.830528030308045
