35
Energy = -27.7687823 eV
K 0.535294702931465 13.694190027553203 20.207888725929987
K 20.978375197574838 16.98761480340728 21.720367513436763
K 18.524212441362238 20.33396798040507 0.09047281999426049
K 1.2640752404299163 17.355217989700055 17.827753361458424
K 2.8152596347434122 13.237700374410592 16.67025975617649
K 20.938365907429255 20.435438134415467 18.769239865275814
K 13.437562984807165 0.34004705832092014 20.070006995570342
K 18.897128218839097 12.730865762116819 20.92249143788061
K 16.6842530176916 16.213718177332776 21.66231328474341
K 17.740271667715827 1.0833031525500405 19.533943997925284
K 14.325924867978031 19.532793662921154 0.28801805550641785
K 20.726580255398254 11.801619687815858 17.011332089929688
K 14.449945255360163 12.41796300817401 21.037211647536434
K 19.40872004632136 16.065448011499598 17.801094825590543
K 16.47051673521281 19.4537733395249 18.67247218938645
K 22.121151523556343 14.957381378281944 14.30433498452314
K 21.276142056548853 19.127524097462803 14.607472619690997
K 16.70020452065928 18.239963399344354 14.486830760422569
K 12.140441727470527 16.000950812985458 21.254648829684122
K 14.884650794150081 15.52196951624011 17.685219003551506
K 18.981087436173887 20.904574811235424 11.373834376686771
K 19.34703715304331 16.684617480566857 11.328297023705657
K 17.936304418851453 13.901256468629924 14.345620401047945
K 15.30238969014356 10.542384278871772 13.338831195038608
K 16.34269847680155 11.276906941427997 17.392765726173426
K 10.161325764176883 20.167246771414426 22.123387218082275
K 18.522198170397143 22.276221265068006 15.481800742325857
K 16.350475331029035 13.457970330221213 10.442080624276675
K 11.900480031636985 19.177898966812457 18.289277837868948
K 14.075539057366917 22.053021738556197 15.890446364229405
K 14.679736730329166 21.36439391335049 11.819165431657092
K 12.152995622823694 18.35555740125472 14.19633614962847
K 14.563721557397711 17.261419865519876 10.79164570369834
K 10.561529810231916 15.194735273711634 17.089457417352584
K 13.330513191138769 14.240189787948353 13.876137160801111
