35
Energy = -28.61980006 eV
K 12.473679822489922 13.17753832751159 9.960735506907353
K 18.07317820017421 18.93780350223287 11.396038372318658
K 13.534351562891285 17.454386720096824 11.531551986153437
K 16.89942440744172 13.937257404070795 10.811306896428542
K 15.357857050295975 9.67398704473992 12.109295660915347
K 14.731192018704323 22.03286229762029 11.093305852971596
K 10.784620341256165 20.424896720478397 14.026759571706314
K 18.854748858830835 23.041503709296364 13.894051965669483
K 20.005927121807833 10.505624969913725 12.039340833708602
K 20.868130427464102 15.008350271597998 13.586525022976645
K 16.601002345125966 16.290925123259328 14.493541040266267
K 13.101310654710536 13.076987560683484 14.09889743650524
K 9.420723683824402 15.749684833307693 13.572008763922181
K 13.987167638488089 9.632681271926351 16.96438116062075
K 19.677179252732415 19.0998777546739 15.663447128774614
K 15.24093250468327 20.73289145902111 15.060510866196287
K 17.479018759282283 12.156935523832246 15.098113049612115
K 12.665583118464717 17.136400335346693 16.181272552632258
K 21.60760696419251 11.245741996230262 16.354411568321776
K 22.143450131482567 22.093754285349316 17.530730180348385
K 14.99452461394757 13.93955361945592 18.14256835890693
K 10.490807953608567 13.383253925123048 17.826615284753416
K 16.348940479533557 18.185374692822105 18.542610028151792
K 18.25163683039124 7.942294953818367 15.571496093714007
K 17.637609002327782 22.464215006900393 18.571884649610986
K 19.620092103720697 14.939704512837986 18.197262992823553
K 8.784095710446248 18.068333736309263 17.60399507344992
K 23.28376887903542 17.32792829075247 17.173517452195277
K 12.552291129895536 20.92348119230867 18.794290090341168
K 20.226164045239585 19.10647360508587 20.502557637619777
K 13.482419390685454 11.558900316279558 21.2399415036721
K 12.438742469613 16.757925627312346 20.740275918969473
K 16.787276639803313 15.251732201359339 21.933356542851953
K 17.837218633855812 10.685225551366196 19.42788659743313
K 15.740158668255576 20.038343071783252 22.248347773254398
