35
Energy = -28.56956005 eV
K 18.169859890426288 11.759634164333464 9.355839892963274
K 15.996860646486983 15.9143409777643 9.741823479614691
K 13.67508474000216 11.767645398740665 10.418312816427921
K 18.80251375997424 19.926837948239996 11.069258029697663
K 14.153052997499294 19.485523139489764 12.047444754777581
K 20.602516714070518 15.212622491010455 11.558496639420301
K 12.789869415144656 15.20770757286787 13.164918310170409
K 16.461048472210532 8.785423988224274 12.547800299970994
K 16.886540369181223 12.851984584404157 13.090781467662254
K 21.267300460581623 18.674709117665994 14.885945686499705
K 17.307265729376358 16.92627672988534 13.721404536561284
K 10.248738980329204 18.79660774462006 15.111433500723532
K 20.63799388660698 10.704676702558436 13.114168842339957
K 13.087961352498988 10.942019588195413 15.072603604308716
K 20.63393883152045 23.16574957845786 14.43101924875484
K 17.08335507348358 21.040157854844406 15.049332133462995
K 12.980755015106544 22.29662900362345 16.535498774966374
K 20.381874992070806 14.089796284401322 16.07931883486947
K 14.047417908411735 18.085297425380766 16.411031624997864
K 17.033710935419226 24.56322774134377 17.07350888978574
K 15.658147864658398 13.99610567826066 16.79866283672814
K 17.620595804019175 10.202913414338326 16.89955072267502
K 11.25987243099794 14.493241595882015 17.5530697890205
K 18.151020358074135 17.53669517697279 17.94678873751248
K 20.214502897936317 21.25165653323126 18.610659184941177
K 11.201738575189594 18.8525076746774 19.700276003768927
K 15.663757552292461 20.76045789143922 19.83972297210408
K 21.808197880233166 16.753458662553122 19.578859988078268
K 14.670189446787 16.09553683550738 20.253172662433126
K 14.12785100791986 11.499402674015045 20.030535738991446
K 18.494226369264045 13.534329951890129 20.23468898905819
K 11.171751476123365 14.657228936750808 22.123173216483877
K 18.292977172058606 17.729738742900345 22.349299252255705
K 13.759287718204341 18.241942292694755 23.58201863516902
K 15.446413098932549 13.98610572592662 23.80776972589648
