35
Energy = -28.54649271 eV
K 16.253341213273377 17.222596514855994 8.9830395582414
K 11.583679659660017 16.488502882008078 10.480644159545509
K 20.830699356596682 17.93411048049712 9.28792550082932
K 17.655627268243787 21.179854250794868 11.208892927256507
K 19.211129097887007 13.646128266495948 10.186126360377568
K 14.284724978512338 18.774043250676957 12.69989080950486
K 15.067467306779609 13.998719033792048 12.081702782469971
K 14.614110783217887 12.136914387224603 16.105410436865526
K 18.474957081528846 17.14096058624102 12.714049843468834
K 16.66280272435453 9.683841674906002 13.232816891546175
K 11.694548176976358 15.30675760586254 14.887665743028725
K 21.53523346013821 19.98981008682004 13.289474877934412
K 22.423728129210055 15.419402013479719 13.012925909009184
K 13.690321242677998 22.713744384846482 14.583119345165741
K 19.021949942313793 12.997795912547705 14.655596626467457
K 13.900331583777925 8.097897714033097 17.009885676180417
K 10.13044254660406 19.623096038803094 14.148397182709965
K 10.348137610607164 21.954831208199884 18.14747645846097
K 21.681283673422637 12.638544286728077 18.19634930447553
K 15.997452238270558 16.18816271135213 15.894488951003607
K 18.11139538869624 9.571507425635223 17.714602370732955
K 13.30007394173717 19.110463271611145 17.06159598443844
K 14.778386655435465 22.54926301668238 19.00600280961346
K 17.526362584414642 20.501191019799307 15.741481190747189
K 17.612004342130774 13.819626297190412 18.93285604417821
K 9.490006556297095 17.375465145959765 18.33082458577328
K 19.070406927705076 11.246649505036972 21.960685602055214
K 20.34189603171069 16.927586009561367 16.92411812353424
K 10.802131238767782 11.881721263923616 18.084933456520137
K 14.679606372510612 10.858274869964365 20.524055654518396
K 16.90682350360866 18.26026739090181 19.793393517268353
K 12.58273703767215 19.1179044600244 21.340165485408985
K 20.40971679958667 15.619735949628316 21.516230263222905
K 13.263421599400145 15.150947983461153 19.390728015203543
K 16.00990830075797 14.820528454938321 22.819292906727846
