36
Energy = -29.73951304 eV
K 15.887537352292547 16.508636232977352 9.585958939544556
K 15.97381596034461 11.434106545038702 9.117764383756082
K 12.201455603611587 14.006536578502295 8.828309320425866
K 19.323307156486 19.355584361488276 10.231663957138837
K 11.774285046198278 18.245697739141445 10.315116346829388
K 15.490374048792246 13.422258348812171 12.978677434938573
K 12.407896072630836 10.63159851994124 11.876144786953581
K 18.596918721414557 10.207439996986487 12.854279718459921
K 15.343774688571624 20.5472433535073 12.172158230986888
K 19.683392654718446 14.08735291991504 10.590734671462293
K 19.334446782932663 21.108861935078323 14.677813579905186
K 10.216355771357266 14.79290888520286 12.821865843807185
K 18.12374436760388 16.841703369897587 13.681905916062643
K 22.326797999084537 17.432818640921212 12.93092394198803
K 11.076506874732788 20.481211018416417 14.298506862276348
K 13.5948064874384 16.99040976085526 14.416375225353327
K 21.208111421105787 13.323808130930265 14.815530250262867
K 17.38869985812782 14.02628783869715 17.378306012853376
K 15.126575369281303 9.49019603150492 15.48933492878131
K 11.999132371371262 12.555889784615383 16.19696541005771
K 15.181448281287503 22.677115393354054 16.29686553650908
K 20.89760058267236 17.6320712307047 17.35743491691335
K 9.838538264165555 16.702136066477944 17.10884979505739
K 16.365715657751647 18.65601527240623 17.34030896421025
K 10.597149945933323 13.285667160322241 20.47750981194379
K 18.999776869502224 10.00504149088631 17.605824790667064
K 21.568624847459578 13.642088216925861 19.329352204877544
K 18.90853792538231 21.277482856428158 19.358096307556384
K 12.108920670320336 20.413612984855426 18.59519584083175
K 14.502515031636813 11.064000135209701 19.722842662377737
K 13.764722403211938 15.78940947501599 18.964695404771614
K 15.14078854436724 19.379850592122253 21.64707046984284
K 18.53167886682607 16.672340717485827 21.144987595890214
K 10.941187195540776 17.4976253161388 21.954127436792266
K 18.16597766049203 12.156177608202231 21.86632634143871
K 14.49647472766873 14.74640757334985 23.05976824079146
