36
Energy = -29.35220288 eV
K 14.535987903164626 16.26472231467964 10.974941507830314
K 16.757132711847923 20.0269259436456 10.703982540151834
K 19.274295794390184 16.15528350378065 10.792582375629065
K 16.771424045190415 12.44871946396077 9.915320233466284
K 21.311092324022464 19.752622628139903 12.63618110955297
K 10.658980714565455 15.983134104197065 13.29617156244946
K 16.830459395183084 9.547285016816662 13.345432300873789
K 12.085169887132999 19.860802590634346 10.80968994460954
K 20.616111907892005 11.95222058149856 12.161901597930735
K 18.39112585468083 23.369612096440623 13.232196136600423
K 14.39781400468662 21.74826583726335 14.106327289149135
K 17.935937902276795 18.896993140945504 14.887367379257299
K 20.851443115634265 7.987477318914006 14.102774133341489
K 13.10514072736168 12.227057949269328 13.223659531356336
K 21.312776088974037 15.461336499085297 14.827266605867838
K 10.433489157660867 20.18968291344969 14.896018353047562
K 17.010818793154407 14.043077934473093 13.90880702650983
K 20.88890316487646 22.11545951328461 16.507546330187232
K 16.84947359735241 23.413537287877432 17.3998255422609
K 19.669076992888535 11.28837115645053 16.658270869238546
K 14.029612900286727 17.18819469806778 15.617983637878194
K 17.956946165465723 15.215522113055686 17.774808058029695
K 15.130424925482297 11.35943413233908 17.102054453851018
K 21.003191202896996 18.203576344248233 18.493877987027716
K 12.99927273249791 21.367212606646895 18.499408418590658
K 10.736981733508483 17.672225884660357 18.654111978789658
K 11.17944397854585 13.384523212003822 17.11540080077805
K 16.719632096730862 19.4107224494284 19.17823210097371
K 21.469665194427677 13.901586063716715 19.84013837269868
K 14.305796342720258 15.186700255134904 19.755538357644554
K 18.126828589064644 16.333990162779283 22.06342487052261
K 17.481279052363778 11.935324299741028 20.911790846788893
K 13.718699015183258 18.563614526802027 22.365668855064058
K 12.893672489624569 11.26688961143834 20.93883524139314
K 10.751529815422451 15.018100853179568 22.187734181165705
K 14.72280659280419 14.172231901913678 24.027166379455352
