36
Energy = -29.65911372 eV
K 16.076900286551446 15.759877828597203 7.663023001400845
K 20.117041324905976 17.776217950841048 9.129273102578422
K 19.24289409829029 13.169784742722294 10.311644147395231
K 16.074560401565268 20.216739025504037 9.321665503349818
K 14.504139357638312 12.762162680541032 10.982499009856939
K 12.451305967159493 16.99539549010618 10.51640805772983
K 16.85493270951197 16.85170470703482 11.753872976024816
K 17.14695987621161 9.354135657927017 13.249080613760391
K 10.399019712095544 13.407821295472877 13.295501878761383
K 21.181033950165435 16.35200340890102 13.459533859914163
K 19.155881938277425 20.68550875916648 13.007498824667222
K 17.671341422574407 13.578806247405499 14.443394969686146
K 13.677018558307024 15.923821142692312 14.526470727634237
K 12.332181166290633 9.031850568205025 12.968140618810414
K 14.356979348548547 20.468483242620007 13.694835220530587
K 10.256250932495224 18.472336902375574 15.29337979951078
K 14.492858281293064 7.586623626924322 16.94152492451038
K 17.667184873254453 17.79870882181193 16.00516903532942
K 11.06880363677574 14.578266317951023 18.21313703615611
K 21.267728778604454 11.42259555547008 14.42326197242103
K 13.965854240920285 18.423490120020485 18.06519820767876
K 16.869174086066327 21.907016281634004 17.500419765899466
K 21.053116127425387 19.682122641807762 17.641990411065983
K 10.382279167632905 9.979355768916617 17.132985685971168
K 12.092346024478912 22.24463070486404 17.51537412233828
K 15.805174169539216 14.48955386408834 18.40914580616718
K 14.001679733237571 11.731922983346522 15.683863215135954
K 20.382990488400832 14.679710298326816 18.01845796757309
K 10.253816533417044 18.973047036539906 20.123588549172467
K 19.216150659166985 21.663779697104427 21.470234807946067
K 13.577622738612773 16.086292982844515 21.9926171685575
K 17.920102957198466 17.681538347681304 20.742375200709947
K 14.508178749884214 20.88367893828228 21.53496922484283
K 17.982501726568106 10.425596546897946 17.901198722203286
K 13.728866342901483 10.977262602777818 20.27090051387439
K 17.51242818706189 13.225455765624583 22.04466390386493
