36
Energy = -29.53733531 eV
K 17.41276698034962 14.722386816583963 13.274421218804605
K 10.435317820418744 15.567652646610286 20.85400380766112
K 16.51651354574255 15.65166884522476 9.148814803924685
K 21.69683480222911 16.371910592712688 19.018858556226736
K 18.127063557741465 14.540703508182567 21.973736585073212
K 12.067653369333692 11.102190143228748 20.061112898328027
K 12.014393168667981 14.35270607144502 8.678507468768561
K 16.45394168172933 21.423859656808897 16.33427617761894
K 15.115884005835317 17.305955190092238 15.922176344878658
K 16.414717409680033 10.94030486777074 19.88670181391607
K 15.003891382142957 11.632050336917832 11.223029251008098
K 12.97614292398742 18.916983353652604 9.403676533852837
K 13.971293633141501 12.32783372941965 15.742081259700207
K 23.482105471931458 18.399305918368352 15.278400586664697
K 10.858804055079187 16.541699265805438 16.11193743687618
K 16.624787733018568 19.337816659119607 12.071267728236695
K 9.594905305191972 12.59434195028468 16.946706783127095
K 19.547788935640487 12.388655148663947 10.60533800761825
K 14.457007752611233 17.770701922148554 22.846174698752936
K 14.206879301960374 14.951272270261995 19.43816138082001
K 16.430275897005057 21.91573640569157 21.05100299860665
K 13.4594273966148 15.807257266099294 12.400852027586938
K 17.95996392260259 14.258348554193793 17.527294528346815
K 9.518020370579809 16.939430047178888 11.669801291044111
K 18.200942179690433 10.750522948924262 14.850616784694381
K 17.50833063483179 18.18171613315453 19.666291428125476
K 12.61062842783211 20.167582896142957 13.79293284605529
K 19.328292128815793 17.98871669239822 15.580486699580444
K 20.412164677926206 21.49757806722434 13.652244431030175
K 20.84955479020014 11.778291980523475 19.141426227755506
K 10.662005251453992 12.53630828791654 12.613891877450913
K 13.058811610110038 19.532759119169754 18.933898940854554
K 21.621621151625664 14.16386440407084 14.908033382160259
K 20.707907442581643 17.057595258039346 11.45635865201117
K 20.628876667998988 21.13785416548555 18.342128959849386
K 13.865677408453777 13.247631675240607 23.39454837774615
