36
Energy = -29.45521769 eV
K 14.82878671194533 13.456994253268743 10.012225688744783
K 17.99960126093621 21.08685270132313 9.7508976730704
K 14.26523184753014 18.46175411204554 10.376784494476366
K 11.172856889692161 10.980334110349336 11.632316956396753
K 18.769259046699588 16.45852822408263 10.363376514682509
K 15.509762700993049 9.0722982236724 11.669142608983083
K 10.536194521771485 20.503513119647025 11.650414147209139
K 11.408955768947648 15.658520617728705 12.616614938398618
K 18.507160974649004 12.343316100309808 12.61977393761197
K 14.432969320315346 22.706714163659765 12.43363399878191
K 21.594123180728854 19.69690184080367 12.24498486438175
K 20.30959616655229 16.052573969152238 14.638430263219906
K 15.751729911127843 15.901829140633863 13.495357964532182
K 14.123657208654025 12.190046650205995 14.350325832133283
K 17.42215569496563 19.6065205418352 13.524845150588057
K 12.65023017541583 8.461901223968544 15.161901624284113
K 18.998140579044033 23.359262984494876 13.638403149896948
K 12.95762813174865 19.43386882095956 15.02381827036243
K 10.240403572131191 12.279214638849409 16.4296402982048
K 17.31871111841771 13.616633433742592 16.8448515840692
K 20.400921753007037 20.19785070970719 16.956689461676472
K 17.18805784322059 9.316985575920716 16.12866376116385
K 16.73279922571924 17.91284154111275 17.228590488636982
K 15.96257762895773 22.17301265819999 17.107278932580346
K 12.845642709579964 15.620378246059882 17.00172841016486
K 13.388336047420724 19.2330156766952 19.774899947637298
K 15.763394250989291 15.404509188659999 20.430634193465025
K 20.311695609217036 15.916134070461679 19.384399459067552
K 21.08419223243108 11.825984726112415 16.898795084763826
K 13.95732650826801 11.469478204255717 18.927567707403377
K 18.359862731876074 11.713205167464542 20.592410798170288
K 17.816847902553683 19.419949437100914 21.18259230732684
K 18.720225377512797 15.450697487055384 23.579726021470215
K 11.364223636093053 14.726071922935649 20.92810245840301
K 14.439648793578957 17.386029037299576 23.899753251038963
K 14.837853734741142 12.87703824765762 23.47118852443426
