36
Energy = -29.43179879 eV
K 13.786527058689678 21.009658010114848 9.795907902651553
K 11.763756074754887 16.994132062619872 8.937259147159313
K 16.273956910683413 17.09370553153197 9.843218229390938
K 18.126377922109203 12.837059205135802 11.849894471753199
K 20.480974440363426 17.07814860944269 12.438368184561307
K 12.656728407428494 18.36836405584169 12.775196034580963
K 17.220382981184247 20.508052754172343 12.809927252107324
K 13.531363467027656 13.688388754042597 11.691360181714485
K 15.272670571663772 9.371505268395664 12.777090627899268
K 9.30601777437348 15.33144303617228 13.063728842219803
K 12.463550512617973 15.396816943742387 15.902867681470472
K 22.523054702522916 12.854762792452226 13.598170324926016
K 16.4294431838941 16.328777744983622 13.962416738482142
K 15.520627123831407 12.31059412546428 15.612360078894858
K 21.396571496151704 21.01189651531153 14.307628472836795
K 13.145271107828082 22.569465466359084 14.309113841790888
K 11.152881200116855 11.298073210573564 15.074445872844553
K 19.471187109781965 14.19030641222811 16.075591991192045
K 14.55996659251438 8.654860332643587 17.45674454309683
K 14.625652969445778 19.221913412229338 16.603195475278483
K 10.06929375979502 19.14340183883022 16.400079280069196
K 17.192787580011125 22.66539412149977 16.83334131697974
K 22.98005738641946 16.62773212825121 16.39534973239627
K 19.123567760571774 18.674073859120753 17.02929883724345
K 8.746642395956117 14.73335678456905 17.690341388742183
K 22.47004608592058 12.151191880551348 18.163690875858848
K 16.083890385886562 15.503904054039022 18.419967782777924
K 19.21902309552356 9.868253554729973 15.30422731731511
K 17.936029664590016 11.494455764530231 19.408937628974147
K 12.562382464178812 12.61937490281693 19.319126107571304
K 12.809571485245948 22.064297551434795 18.961756560483593
K 12.174220712320954 17.215195125317734 19.966901170708606
K 20.093593312474503 15.569063658718388 20.226468570466857
K 16.350958595955976 19.11234985524776 20.63686208121256
K 14.53938225675334 9.853616587128748 21.816308115861847
K 15.766309133321245 14.411131771665525 22.367575020395716
