36
Energy = -29.49794557 eV
K 11.234267323904248 19.07736502650307 14.813409724370628
K 11.951032575050936 14.463894302072145 16.137410937176742
K 11.251503201716597 1.153083304601878 13.883699125367647
K 13.88101620836723 10.173741072563812 17.215768265379275
K 14.311357709460685 21.010311176848354 12.032289311913898
K 14.269150969339423 16.42665913442615 12.756851877569778
K 13.941973860371563 11.975196076103437 12.90911872353839
K 12.583969263426395 17.78691326678868 19.145985261244626
K 13.900038781595581 7.477526016208102 13.556028077365864
K 13.941544688611998 13.469381779148739 20.24252757981277
K 12.004438215293984 22.16236174550351 18.041895832466686
K 15.65215316566809 19.410821019561954 16.107400715444665
K 16.509045033775834 14.264867655860515 16.491733250297393
K 14.279888110620663 16.641990980371627 0.95322696504401
K 15.37119511075803 1.539073487325169 15.564599000801437
K 17.962523672866894 10.902164456200707 19.121716245462167
K 18.250588083353872 18.535449086484753 12.36569699406474
K 12.855713342442561 20.97078545662078 22.44589522937466
K 17.10698716246145 17.239631630213943 20.086916236665278
K 18.362503766335315 0.6598263841691782 12.363040773795785
K 20.283676120086806 16.904837991897235 1.0991700275559233
K 19.96041842131346 17.33637826095331 16.51102640271827
K 17.631662014735966 9.773032783929482 14.621942584568291
K 16.17460659372533 22.14097285053442 19.709088766826575
K 20.582978571487292 20.269058130745137 20.611996255954107
K 17.550386849869845 13.436871019444231 0.3867308384146897
K 18.2024854279668 13.874956829152195 12.369172680161753
K 17.201874387175977 20.279218951342887 1.1385182727984973
K 22.059056257396698 20.63214622296366 13.147303987051572
K 20.9714108963331 12.521908528046303 15.723450414106473
K 1.1065780831575944 19.916648273802362 17.26181553029616
K 20.82842753323462 14.41097725164243 19.882606885247835
K 22.169114549544542 16.047940930090487 12.840269023447235
K 19.505800634575827 22.13889822603043 16.510045508948537
K 1.702608521555991 15.399436775696607 16.89311575673566
K 1.4882450239408898 17.584229962951568 21.018499597423574
