36
Energy = -29.78122469 eV
K 18.500006342285772 13.91561906296089 9.511673418324571
K 13.951053009126273 15.79277609814307 9.928465252955606
K 17.615435384191365 18.73371361836587 10.920151646845213
K 15.208641568263138 11.02940548341875 11.717239024593257
K 13.527369718998001 20.870885144119917 10.60539267964838
K 21.24669943378187 16.07579878562303 12.799774579351034
K 19.77709490817156 11.361231850319871 13.329386153009521
K 16.86517148305986 14.819510421425184 13.236995322310449
K 10.249615546867163 17.957566392810307 12.255645771848702
K 16.85728019831414 7.8694768655104985 15.025603989831716
K 12.093690369996002 13.916133519887271 13.964057890638566
K 21.22370487738163 21.0732848853246 13.955067066144666
K 14.133482482898927 18.141626655901483 13.85406129651224
K 16.513086042372652 22.271679116357298 14.005865765836738
K 12.450053134267776 9.513758190787351 15.377080776661998
K 18.439819978249986 18.30556993410518 15.403675174548876
K 16.120849595576672 11.804402753061925 16.143947035831797
K 11.715869166519632 21.623116219658005 15.150482263583674
K 14.812709312359674 23.837263906673055 18.310028625753144
K 20.12303160413637 14.27812029106215 16.85368695362557
K 22.305032765150788 18.34390928279437 17.856357144875773
K 19.230586243347012 21.843881786359788 18.281555633097156
K 15.093095402356926 15.536253608339182 17.26632155782332
K 15.026268955687435 19.77840504878533 17.768373218012727
K 12.104017222928903 12.783925120648524 18.65289022589175
K 10.981893960547184 17.24330640147482 17.190256509847746
K 15.03760993998128 8.982478718044648 19.228515520120332
K 11.687412316828661 20.93455476153131 20.132713845854415
K 18.252338321809624 17.447320237853532 19.684020894876785
K 21.270233605234267 14.670175657833772 21.196421052986825
K 19.61413442184914 10.102949761892484 18.302504080184924
K 16.297022053072098 20.85992694739025 21.974459062932116
K 21.074691773099676 19.610224927221147 22.163799536565335
K 16.82687000489478 13.091733638919495 20.744523811623097
K 13.737977493748037 16.861892643019072 21.245971887654264
K 17.91265458779791 16.594625487528912 23.839538554950256
