37
Energy = -30.52132189 eV
K 17.243506951330673 17.037789348565667 8.168078271471545
K 15.970577019851435 12.511495415858494 8.737720512598214
K 20.36949729377293 13.907893101202577 9.607130473521964
K 12.981422039204887 15.982971224254413 10.121149329200346
K 20.314228463216317 18.486490709994886 11.60681939138156
K 17.04728594589203 15.258836257528541 11.954541109362278
K 15.624114103816288 19.75769034866038 11.774165278406684
K 18.345705106817125 10.861503395411354 12.646899830681686
K 13.597004895329972 11.995455197585496 12.732395901316098
K 11.229316807951061 19.92033978093771 13.618112488076743
K 21.09818202656957 14.468423103124533 14.257223044894888
K 9.95359549033871 14.895371599378864 13.445685209556771
K 13.757813944827905 16.42627156508611 14.525220497692278
K 14.14511894605936 23.63214752286034 14.178010549088697
K 18.558616912769498 22.172477867514765 14.649889133944871
K 18.200146175256872 17.773018171459547 15.413268649683697
K 16.834805305402522 13.468281334793566 15.761846983267468
K 15.26625836128424 9.45775608772084 16.542779381154183
K 21.99072964373687 19.544407650099654 16.313768063990864
K 14.852765572413986 20.246428269209765 16.5092432670603
K 19.98311618799807 10.92906416386038 17.43749024292643
K 12.280197175498973 13.095459436008856 17.211253828810307
K 11.02207292953937 17.762914698972406 17.970609848642827
K 20.84086720840305 23.51158580286344 18.33308507750885
K 11.406137423424612 22.47070660856631 17.78372949091069
K 20.25933513869892 15.563758323267212 18.789973679173478
K 15.42595154671781 16.663369718946793 18.680794349678404
K 16.12630155794029 23.7997653885593 18.555731804051007
K 16.345805589065204 12.807660960133395 19.77654466708683
K 18.520038085763815 19.949755476417412 19.61065128443178
K 17.366500597393138 8.829344372058914 20.776117305341668
K 12.878587158768072 10.303485056339868 20.714302194156744
K 13.942026278044942 19.987329224803652 21.05567544685457
K 19.992112542799237 12.404960833550673 22.137547457523045
K 12.680494360341106 15.054404081133073 21.67274055500155
K 17.406188252448384 16.45491717871787 22.596709623077192
K 15.742577573483798 12.20547133672435 23.932096390645263
