37
Energy = -30.50641664 eV
K 16.072604198338468 15.493755427111989 8.417050246675178
K 20.8876628293538 16.09060061191441 9.718683673013834
K 18.91567471765739 11.854105978159334 10.096985033135894
K 11.33054221596016 15.075710114994903 9.209489128594603
K 13.081315558308166 19.401995561541224 8.736776073735607
K 14.402585042438343 12.14967060297255 11.430748655095456
K 17.55350841408276 19.53856064632029 10.607526628367221
K 17.995579709221342 15.204579752443484 12.513799769198785
K 22.032117324333235 13.471835734545065 13.813630081146911
K 13.945206282505646 16.887454676693753 12.113560717625612
K 18.00229585501941 10.957226609793036 14.708084610437604
K 21.25109315046964 18.347736356826275 14.007211735078824
K 9.919275945647767 18.486802063904126 12.23210149298486
K 10.690983835144305 14.051340198076867 13.90038403558139
K 13.940622135554884 21.45590000724137 12.94073968692538
K 15.037876443594806 14.238594034538822 15.334963683122336
K 16.795335777493282 18.613581096031105 14.981589015602658
K 13.272503964966427 10.275102200215217 15.86669714744464
K 9.14755332626121 11.609271446351116 17.674515179493962
K 12.313351459255536 18.406686301609675 16.064831858560613
K 18.55012326780902 22.369046861545332 14.494857305188162
K 12.435251417770678 14.341328046787982 18.391068846007173
K 19.87459148774739 19.58628308559981 18.439244990061198
K 8.623052797753052 16.356007185575443 17.5003712272778
K 19.20905421474973 15.246915895828073 16.71978717908326
K 23.163578008846375 16.09385430951316 17.878116506439518
K 16.697543856067256 8.440369191804766 18.34935571538975
K 15.865112278894319 17.00383519750571 18.884571276314862
K 11.993879662774804 18.40289259854578 20.646380406851165
K 12.808143226096638 10.502492594960573 20.561966479300285
K 9.813497254633695 14.138589223598492 21.59994725438325
K 15.326055675189417 21.36838886130792 18.100239701705686
K 14.48319535049956 14.866151383408845 22.562590859403773
K 21.120294785426363 11.66226017839321 18.21846328599535
K 16.729997923940875 12.547031893273525 19.33914155948715
K 19.618904737382174 15.710543699761775 21.164440041987863
K 16.622673542586845 19.276138045081133 22.302726587077938
