37
Energy = -30.5192815 eV
K 18.01924084176743 15.71662608770863 9.424759091870092
K 12.704513950460386 10.389810678844936 10.87367924580542
K 17.158009174344315 11.309321817441646 9.801708824533168
K 13.798938756703029 13.937705720061373 8.183788885653408
K 18.42999404216877 20.24751837856871 10.26167930623889
K 19.147223730044367 13.461419448668568 13.4398126590912
K 16.303691492558954 9.504484235729878 13.735238471232487
K 14.698831641179224 13.886604467521023 12.67217032202671
K 14.050700229509719 18.03028522443551 10.081973578232915
K 12.398646891834353 10.843864717959393 15.432432874662657
K 21.520182623195378 17.378703956117324 12.465464509674916
K 15.177372142518104 21.6666967425122 13.35120359761384
K 12.518851956972886 17.993516716177343 14.409709503560405
K 20.307000710180002 9.964674601215375 15.734249892311302
K 19.78605186070822 21.173361868105495 14.615555990858143
K 16.973032243312016 17.533110001379033 13.384591615088896
K 10.641026512969427 14.6897800259882 11.654490753545799
K 19.604190342003353 12.981308868666135 18.929415066430277
K 8.925961649617479 18.686931359569346 17.184287425430565
K 10.295801893416577 14.502822046221832 16.216909064224286
K 12.35430507271667 21.687046269683545 17.492391216122996
K 16.21454461664242 19.688082663539 17.18765865772454
K 23.40582531011663 19.008013009727208 16.45982299795247
K 22.980759931847846 14.228214133285803 15.971916194874725
K 16.133559042139964 10.064603942647894 18.17677635324273
K 15.609965479488412 14.344079668402026 16.923532348719732
K 19.550804403349595 16.862369237489588 16.658326453957642
K 12.999018131587631 17.140594712888138 18.78054651572783
K 19.91310246618521 20.52024856204113 19.40592055164256
K 16.231457182396746 12.693051369403435 22.04986810898147
K 9.189310830090141 15.570070181735577 20.626736883830002
K 10.498984626606742 19.82145816717276 21.346140862047427
K 15.012690061136906 20.495627446555044 21.323630475273987
K 22.21755972996856 16.54905627750318 20.138392867253305
K 12.39996387944884 12.459400841397896 19.809397232507823
K 17.426748648090552 16.73818589092508 20.741284434771124
K 13.283462696825111 16.112675456810823 22.935861961385395
