37
Energy = -30.67392453 eV
K 12.132036608834573 11.578550012426227 11.157015146220996
K 16.10361296345078 14.022057830788915 9.786173176385283
K 15.590379617436913 18.37436091424368 8.197406628372267
K 19.731830776637725 17.041943020757962 10.458797088141656
K 12.010574612249751 16.27592730254558 10.4827014517926
K 20.473428436539216 12.257254625696596 11.23986152539958
K 17.610069326211395 21.419869441928014 11.172155442737703
K 13.981644571602958 14.115562949039415 13.773686187594032
K 9.645741024632716 14.058609748816714 14.39507274229923
K 16.472133647063973 10.47373384526183 13.246102727511204
K 15.850497575154101 17.852317483944955 12.323585464521534
K 18.27563329041105 14.606141462050235 13.782315290193951
K 8.73815282134376 18.621981180943784 13.129032645943424
K 12.812815141082053 20.85774321275729 11.55053043812361
K 22.44406833498852 15.288104477485959 14.47441858020478
K 15.42540842297519 21.263516774961598 15.446254780897393
K 19.58582451703694 19.049682801469118 14.761699730514385
K 12.27368197603077 17.90570278294623 14.860567245271735
K 10.730270797334105 21.61027064562306 16.007018997754763
K 15.920716058902986 17.080812086260817 16.630857398492157
K 20.199575306858403 11.20919040820447 15.94112839183144
K 12.33968034319519 10.530047241336064 15.96705531089959
K 9.001123926702816 17.318700543171 17.841830790223607
K 16.184117937556817 12.684583817719481 17.20315595035281
K 22.614866381493723 18.2089215502727 18.31269759968266
K 19.449433630986203 15.431316389318088 17.86167043102079
K 12.471843455372536 14.719000030016423 17.882730028180788
K 13.114716752415596 19.109158083729977 19.27357825535657
K 18.167121214927043 19.476766686397756 19.338180966789583
K 16.55679314104022 8.631813635357984 17.708769705558158
K 22.924261724590654 13.671717905639557 19.009111511897082
K 9.125585170769947 12.397782031064226 18.7952370556535
K 15.805566678242311 15.568332714503333 20.932598651118468
K 18.730625292870315 11.875205019327009 20.554233083980645
K 13.597561804783755 11.388475435644887 20.493189594402065
K 11.159057537087799 15.481400358748491 21.74564128452053
K 20.39879309843685 16.192689466849533 21.913182617409788
