37
Energy = -30.6224185 eV
K 14.812481253596992 18.73737837659568 10.07243296634494
K 19.234899955715864 12.321812646354552 11.145905278511341
K 17.684090983756676 15.638684738079391 8.204773652878384
K 14.392198906165058 13.538042984827321 11.32929301065261
K 16.04589658945547 9.345219507352663 13.574288275250552
K 19.100945545740824 20.03073855173184 9.85523882818962
K 21.845871568326363 16.324252918811162 10.307998910587333
K 10.882161267248069 17.69311869140595 11.556126130625916
K 16.6849791275987 20.758469511955802 14.038823397391043
K 17.9766489861697 16.589001888880716 12.351604666639675
K 9.929881898251807 14.373682968319725 14.23904248871168
K 20.46109016803428 10.222302886059602 15.293060475372144
K 17.44717794614051 13.226542483600898 15.044629772801757
K 11.415336910468985 10.010238471770027 13.050728020596422
K 21.820754755173464 14.783917240100436 14.617085648620728
K 21.247891388504097 19.470079471135637 13.948451910623145
K 12.584740506895635 21.784926173001203 12.799095717206304
K 14.036600176845775 16.724721029074036 14.501832669036816
K 10.500113346657285 19.22103305062099 15.922282222188528
K 18.345718584492058 17.269893754361924 16.555823399998854
K 13.444162775603761 12.332361919040853 15.972460993175515
K 22.118518773990274 18.00613648546128 18.29620933271609
K 13.057914452674993 8.042825072532711 17.004929206464812
K 18.52684100162926 21.353575261454644 18.2458780031913
K 9.516147195568289 11.006959635838514 17.305206381602428
K 13.749012612043572 22.785792993312658 17.24447278592273
K 16.93545109144808 10.042717630945976 18.44600879450756
K 20.159904692579204 13.532017722461665 18.86585795880674
K 14.59402423281631 18.75826904429933 18.20261386202796
K 11.070348559003932 15.477223634347869 18.609822649248425
K 15.605854102891513 14.570601954433348 18.793441870198425
K 11.076579288190459 20.049370531899136 20.367350849044325
K 18.232685073115363 17.51661301644185 21.114387895982766
K 12.942950599725068 11.468110874051392 20.479286511798897
K 15.313739119426295 21.264725652245687 21.62367278291482
K 13.809273675814138 16.57471186233999 22.277521441451324
K 17.035209796346134 12.792026272957985 22.38045814682253
