38
Energy = -31.07636708 eV
K 16.455312832794785 15.315173039907393 7.665703710216991
K 18.203412501598795 11.92884789595348 10.195517865589585
K 20.433431926412222 16.193971088859396 10.505696584995059
K 13.423798309223402 12.426199316703643 10.221774450203169
K 16.85268183593467 19.387281955270126 9.938373474732876
K 12.658921722710453 17.121494587343488 9.781519941739106
K 16.250167819846908 15.377710783545822 11.962379981470653
K 21.632011437966625 20.652159443827124 12.203636035690602
K 12.899365489886803 21.65774786971671 10.88620410348595
K 8.986643098284057 13.618592537592278 11.896588799684586
K 19.81814643479377 13.56312062258021 14.412892011448287
K 15.705668597365532 11.421322821375 14.337476299162816
K 22.95189896166492 17.16021321792388 14.998034700876191
K 18.637184266573477 18.24681314193233 14.089499953622063
K 12.420270653511327 14.824862023198486 14.001295240954219
K 14.140858867027323 19.03807779313001 14.006499440210176
K 10.73391772100859 10.810127546534478 15.367988184527816
K 17.168013362354053 22.327623327231024 13.589476589605908
K 9.857361170143276 18.501629404552396 13.203223904474354
K 15.913823618158172 15.513044805794411 16.430890322854708
K 8.646723374141905 15.1156565695235 16.193488766888944
K 20.801099425908298 20.92047985467845 16.99457798487654
K 12.03540565613289 17.725846868087007 17.93400732486112
K 16.226145431286835 19.99142251078702 17.84067851110239
K 12.983757684205221 13.095302342231252 18.320332449454785
K 22.74230756612048 13.676622852975077 18.312959609494783
K 19.581992171863156 16.60616372884131 18.07813417723062
K 15.125425783599143 9.066426370566116 18.177486751081176
K 18.217430172579103 12.198975950873225 18.619132780870302
K 23.183048373584562 18.012650602618788 19.89459299146548
K 8.617808137975324 12.695670323841105 19.81071551957317
K 15.97285206878285 15.861778500471342 20.829159929154216
K 13.929638344396537 19.615832407730675 21.751184551254912
K 11.668987344146952 15.318265813654811 21.979627569639742
K 18.968028241758674 19.33719708276072 21.500392498463643
K 20.22096882719213 14.777293922964548 22.047946380394638
K 14.821990383878267 11.679831562148475 22.052609335433743
K 11.194601046572856 9.2996701736584 20.049401934598162
