38
Energy = -31.36519896 eV
K 16.82714304091324 18.549167651218475 9.517673159171625
K 15.942806870072765 14.4602697002634 11.610047447172628
K 20.491768666186687 15.619431680476481 11.091393694416075
K 12.312566579121441 16.35133718137235 9.641599115363887
K 20.70153837887095 20.659655221055054 11.561352944750599
K 16.532656217785025 22.338084658905476 13.03039900793002
K 19.267417696132746 11.071004541539617 12.324079101201393
K 11.661263101568801 14.29637716171879 13.821323605041394
K 17.995425583959875 18.19120733305515 13.581278569092694
K 13.783208206459712 18.776235405106256 12.75712426545453
K 15.069094675080342 15.784883777978695 15.802640183727869
K 15.425863087140666 11.408542737770793 15.226921747310506
K 19.056889403589903 14.217360005952765 15.043079045510638
K 22.129803926730204 17.701751136396002 14.903008971063041
K 22.988411995074454 12.916378680032004 14.5130846290638
K 15.479704367773321 20.015056142283065 16.70940983185665
K 9.652911831457105 18.22913385612513 13.101233701454028
K 19.785997660049134 21.495582851470715 16.169893442666822
K 15.569743394908642 24.033295489798437 17.470440269820184
K 8.806289789676915 14.771984690218472 17.503164782090778
K 25.040439511270236 15.772058971633477 17.380758539935467
K 11.9950127805067 22.096028223775313 15.235490564663586
K 18.766596908181597 17.444444000995674 17.879338329884998
K 19.526731292169732 10.330422764891562 17.13645951638377
K 14.901340412302488 17.12534024231941 19.975737915774204
K 17.11218327488301 13.538885893418094 18.95566691834735
K 15.535104864682102 9.766680582313526 19.76616108503204
K 12.675212840746466 13.264711958882879 18.61726327063088
K 11.520396839065137 18.017759894144593 17.15751253287363
K 17.63052048560781 20.65997994743068 20.760010995457638
K 12.994056029951487 21.06582520635963 20.239379968205238
K 21.456126776196225 14.088773776970813 19.00680677059935
K 22.261657675335208 18.758513602115062 19.598889187839223
K 11.017268359022227 16.54939994970671 21.469240414046737
K 18.770259937442063 16.336781704384794 22.25201831215954
K 14.885223560302911 13.735416484773923 22.73413537663112
K 19.07592277720098 11.515304293692992 22.064840791262508
K 14.856971654913625 18.548463051784353 23.89267244844456
