38
Energy = -31.15782705 eV
K 2.704924460365251 16.13970602490694 14.509897211463558
K 17.824276256238246 9.46386443508893 20.517945335985736
K 19.128278978253014 13.086892648049357 18.038270004529686
K 3.2519963470688786 20.57849325248142 14.526550840268863
K 21.914681097784044 11.754463695165366 21.352312985976074
K 21.59409581398308 14.335235455184836 13.981575742069554
K 0.5288229574764151 14.151949933989021 17.97457068310396
K 22.48149448755294 18.881388153137344 13.462385750426812
K 1.2290782170676402 18.569527794033974 18.043153015896735
K 15.388485649778614 10.236758121187671 16.81860678756066
K 17.420078856132196 12.724959024979439 13.469092391894335
K 14.864469442406431 13.101038933068923 20.240838037673047
K 18.376674035980887 13.794714749360217 22.968442859926913
K 18.153696417926447 17.27753776030686 12.934882825917438
K 17.297068938287754 16.969784989567113 20.111713288594398
K 22.824849498693876 22.570686978358708 16.41719819540246
K 20.2131710761343 17.44210495548003 16.963231018869998
K 21.70977220373956 16.364930979462766 21.315043931662217
K 13.05780447330124 11.64443737005726 13.220539658348342
K 15.552361357309293 15.480251511290074 16.320166261688954
K 20.77304896456408 20.742726144324635 20.030517567371678
K 18.84463779585772 21.394578202385805 15.05353648863169
K 9.570964482324468 14.488149944895545 12.788284238882488
K 14.55932663555464 16.448091204928087 0.3526510732779198
K 11.64630938288074 13.46871733400332 16.95037137142286
K 13.728619888058423 15.920777040055388 12.361439758155873
K 16.45578941832315 20.984437346374982 18.810326696044232
K 18.45638472963728 18.88854317950193 0.5094195286124866
K 19.029185742953228 1.6290449372378661 18.32789934734514
K 12.818533950203925 17.449855609823178 19.487955438373195
K 14.650444850962574 19.753439940030706 14.929557129893134
K 17.96721554076233 0.10546099118834998 22.488450687834018
K 14.167069795782016 20.822216225879558 22.444338247210126
K 10.71836134552966 17.779207321585933 15.566899437824455
K 15.244978711693728 1.1689890003970973 15.963386784335928
K 12.01946885127911 21.710246034124545 18.136848915256166
K 16.456908840057682 5.613176231743552 18.14679815530202
K 14.554043115769838 1.8195654169408728 20.287893514057238
