38
Energy = -31.214944 eV
K 16.19828770388604 15.164895905291726 7.66764091419002
K 16.385188509968206 21.50743469863633 17.279358781862356
K 22.96703267465089 18.064681137220706 19.07147702939249
K 13.432502514733127 12.301820771156711 10.262703510843904
K 8.587781633642146 14.494654269441462 19.944223653755646
K 11.927498823653375 21.08187546718299 17.00976355556986
K 22.119964671574486 17.672488425566527 14.315110894817428
K 14.700872469216048 22.466415706414498 13.192565233059895
K 14.045388803878799 21.698746931567065 21.0463495821713
K 19.582987064518356 11.388200107275976 20.28621704552719
K 15.555221429314935 13.470195121840707 22.21830639849513
K 14.524459703029299 17.447528390660256 15.990561371901574
K 15.599381929643856 17.707374373220375 20.559303318744572
K 19.126197664833203 20.558308261297885 20.809187180975965
K 19.706808735174864 15.80690755707519 21.346616277097553
K 11.992597376138727 19.149720889069613 12.817545310012457
K 11.146717373238369 14.701892097507987 13.270238962055506
K 21.629789557234115 14.152008572847118 17.19368326100466
K 9.844778617607336 17.1485005724964 16.577323844657503
K 14.614091055243213 12.522513997613729 14.68583931523043
K 17.822463225554582 12.357749672299716 11.02383423174067
K 15.22317207352842 16.068629388837614 11.854818954638372
K 18.843024218516508 10.980341225191001 15.55691191513471
K 20.904362910833395 21.567619936558604 16.6007632364918
K 18.952223071373208 17.925757371734022 17.475576166051688
K 19.53842790163842 16.64883754422432 10.296392171485738
K 18.015834131786743 19.68477727510887 13.371384134398847
K 14.897792371392692 10.520542428071163 18.781988638482098
K 21.966987312935267 13.17624366956486 12.7495801342913
K 12.792787856914925 14.641454612258663 18.822047202469108
K 11.41595497288343 11.439701312536553 21.410834992987855
K 11.187304472065279 18.24460293177916 20.731716303537397
K 18.456863715309584 15.200532339753366 14.26515941948005
K 10.55158399946362 11.809681062798017 16.70767384838785
K 15.587465037245165 19.67632823647024 9.568418418938407
K 17.04412918570783 14.19721008198285 18.18453853419969
K 23.677450541638606 13.581816839370067 20.7841670894698
K 12.17328115989611 16.510667287939768 9.008835636311643
