39
Energy = -31.94518037 eV
K 13.614417277439442 2.2190321790969527 18.820828210265553
K 21.02875973971685 0.728118228734569 17.21234004597381
K 18.747541634219875 0.008030591992798628 13.543891949295544
K 17.615335220205186 0.2541763897154899 19.91114597886855
K 15.386583892692595 23.127954484117158 16.165046043087184
K -0.015867885224071166 21.456191045816283 16.873590286929264
K 13.869897460557889 23.2915262344828 22.167459523504583
K 21.389941975215475 21.808468106976505 20.68852353055621
K 21.437779437782034 20.65084258705587 13.16034806416917
K 11.412981935088112 22.202184046550855 18.491572858007082
K 19.180896125066898 20.532932289977534 16.932744696624262
K 17.73032944148547 21.072843107404037 23.293942045397696
K 16.878773150342557 19.875108155330626 12.97869404826705
K 15.59875421096598 19.90959510471106 19.513327721188443
K 3.6392043806228362 18.81095328333174 17.238243279401484
K 0.46409888260786025 18.750086608354554 20.67176799365349
K 8.070863248304178 17.993878503803575 16.97701509142758
K 21.650321162057097 18.78923627863922 0.21369029319882502
K 1.0122313127362499 18.021875781314456 13.548348896384697
K 1.1614904098158714 15.801430855484101 -0.0033184796000080567
K 13.163404527811855 19.095649433590673 15.63235568001682
K 19.672364980251558 17.309854146333883 20.30792084820785
K 13.606291491424521 18.87196642222036 23.49081877763126
K 4.1285274642977985 15.830506347769992 20.26412204904026
K 11.224243347347455 18.0331912233436 19.907002411147573
K 22.550603587282765 17.237828965315607 16.918336076506353
K 17.326319973502745 16.505321790967432 -0.02432406085717822
K 19.94055122153204 16.351443783966474 13.278507005828072
K 16.901126649324112 16.430464189687523 16.604001573865816
K 21.106124738468306 14.24054041512691 0.3096416426256014
K 14.687830076481504 15.793212256747095 12.799891939427456
K 23.244779388466736 14.266683661459924 20.296741498051276
K 14.71498837191895 15.359074506574775 20.540091237809225
K 12.06922839834621 14.88782273237213 16.663319982496866
K 18.562432331796046 12.808645392866538 21.024689758799237
K 20.307396181694813 13.284929907894401 16.931867643168793
K 17.620433217505713 12.413002067916178 13.52751871872652
K 15.78019568303069 12.026133259648757 17.598885945821827
K 13.201059040532776 11.621037160241762 13.87744798983504
