39
Energy = -32.24132738 eV
K 19.03023421614086 11.709278435803522 8.756028570724936
K 15.055735007378608 13.735631639914438 9.527396725141719
K 14.797059753101443 18.54062876150815 10.069814311833097
K 18.957344981858675 16.15538309862915 9.880276889956834
K 11.521825936774226 15.951986405235195 11.667505108910762
K 15.89312034642988 9.28199889679893 10.74424050583348
K 10.819952428791847 20.48972699658002 11.901839145610769
K 22.26453753800311 13.148086157440359 11.432625843483297
K 14.51878666064128 22.72671936631228 12.20722183903657
K 16.19997050758009 15.637512065781008 13.509819961492365
K 18.322366547730095 20.20270359583584 12.317466988655898
K 12.918587673375212 11.75213841652357 13.018628818713125
K 13.950311829336425 19.02945955893517 14.874822961344872
K 21.059749238644304 16.742620847357674 13.804599244507818
K 8.515182833894643 13.219042912503381 13.985791269222824
K 15.335762609071448 8.472172267647329 15.320354406853161
K 8.979925035014125 18.085026995627157 15.190886391883222
K 18.445727960722223 11.859215153221728 13.509399967587454
K 11.680222464631527 22.264998721074587 16.346471999195348
K 11.992802070400948 15.07618788067345 15.96781636730349
K 22.564033684379826 12.985382913125052 16.10132901728412
K 18.195173514067132 18.953863981677497 16.47350729560719
K 10.85377565507814 10.58522631092006 17.107967442164792
K 16.638021000409747 23.04674320869405 16.050261573151555
K 8.29967826383444 14.363131360368707 18.297718358171277
K 15.1652219615519 12.472636015950426 16.821628798089694
K 18.846145597911566 14.752128814246317 17.18620598534957
K 22.265066717427473 17.57692247640651 18.244978566226447
K 19.906051566226857 21.697364756798518 19.308259883457783
K 18.908632826484812 10.38096178694477 18.106324325945796
K 15.166279254275581 16.541212087301478 18.485831626546954
K 11.15807879070021 18.25507329451977 19.17674584328783
K 15.138140374585776 20.760334939411436 19.594986847181392
K 14.436999419932246 9.482300306002577 19.89136217705444
K 12.197036830729768 13.555188265208576 20.50735063951203
K 21.36462235864506 13.740169589393869 20.65594911962651
K 18.752801467946885 17.62437732463565 21.174427259276843
K 16.778756720605948 13.274346643843675 21.354869967974427
K 14.343402987749826 17.109242383213108 22.664412588865325
