39
Energy = -31.35583304 eV
K 21.302691400789396 12.449013481895502 12.480913430627078
K 18.4095608775612 13.268917206049613 9.613485219217502
K 1.871435924255654 11.423891044834965 15.196366862891885
K 20.31593238433297 11.664754707286537 16.79840092762087
K 15.004237149654726 15.370798006710507 11.061598205226806
K 17.215779831814135 13.284030879068144 14.032676197126912
K 0.16768059915094793 15.463835920075814 15.239310185366305
K 19.65664430143156 16.733939162711525 12.268830496311315
K 1.1368773042856652 13.380988665862079 19.04294887733393
K 18.624922477096675 20.919937652710303 12.4694993129095
K 22.353658171088743 17.631944115402245 18.9506146913065
K 19.638644105246055 13.664099218238425 20.659819514447268
K 16.375771102231994 12.258141610576308 18.161684729728716
K 12.51079698147287 18.583310524230267 11.997241815072313
K 13.010729241460018 14.691299257273995 15.205980099427702
K 22.05345189698231 19.530288041340693 15.08491636990203
K 0.44849454772153635 15.504512754780633 22.652619057360123
K 18.806269711988243 15.98229030988548 17.001325503383008
K 15.9407742612458 17.838060083633682 14.525273140076733
K 18.105236563508797 20.26523642083116 17.132638737925745
K 14.349158181394364 16.963426845562623 18.794809778972503
K 20.784630624785972 0.8835418573564496 15.343975723243307
K 12.491340846970033 13.010754095336035 19.297538939581624
K 21.643005633113592 21.922711632080823 19.154961044374428
K 18.2859891950293 17.86936668447121 20.858182178137977
K 9.494594187514034 15.830374975839007 18.143767896356394
K 15.645761181626677 14.526817820280877 22.174925223994414
K 21.812966943623316 19.75029614996226 0.23705739617455104
K 11.760145693121586 19.116178346592264 16.091322932229005
K 19.219667495441925 15.710463687141262 1.9169100767567637
K 14.773671250738007 21.987227156783067 14.60478589743251
K 17.417302908665782 2.484986274838426 13.226917746118541
K 14.057865557286481 21.618405561294427 18.924377218052907
K 17.10035631115126 1.832678966842743 17.65954827883696
K 10.714311269148949 19.49105872412664 20.334379454187722
K 11.437592033134893 15.786513390252994 22.583953814780262
K 17.731107483406205 22.190896109213277 21.290270942808494
K 14.460722829601277 19.222527343496235 22.59218281892569
K 17.986151215206085 19.76636720262788 2.4004659835212787
