39
Energy = -31.9161741 eV
K 18.28768383110886 0.8274066274392496 22.55068602714662
K 14.64081341444603 20.669347189623558 22.660779750464755
K 11.49515916045396 21.68063522244619 19.73098334631761
K 15.60035855725648 0.72064552041688 19.079093135511766
K 18.699537822908372 19.767091843307643 2.0396380581150164
K 12.648959084526116 22.84255111891367 15.645764925296612
K 20.537008094647216 0.37007609943097736 18.583217248515492
K 22.112947413176098 21.583660132545035 22.818983699771408
K 11.070692245410703 18.378202470432498 16.36460944061083
K 12.628664055782279 17.174992071470136 20.487935855108336
K 18.528305259894346 19.756605052897743 20.380299464418766
K 10.090775163820085 20.20487529203845 12.522563318726643
K 17.571582356714906 22.38665702848127 15.235215125539785
K 16.385649006774205 16.478179554503487 22.81447317214553
K 15.211154620979393 19.19090083610298 17.46201004723799
K 14.48826781466241 20.106713912466457 12.74311858483509
K 20.977061452181157 16.093685699054646 21.667743285424795
K 22.114152069055002 21.31006360224889 14.557238869314022
K 0.28228985875124574 19.48050368130228 19.072382960641164
K 18.955202992091284 19.634027550123562 11.783280940861092
K 15.627188177294988 17.1917754195525 9.580885123806757
K 19.758991490710812 18.325292280992873 16.456698206650277
K 2.5445178795004 15.672776129086914 19.83492610840255
K 16.65951096552796 16.287668559474653 14.054952481840177
K 12.258141574233903 16.046264774139445 12.527169051946851
K 17.54357504302909 14.881366063959902 18.67558626715636
K 13.384148835730034 14.533826555316558 16.76174816222812
K 18.317298046179495 12.570159175675823 0.27599993566124825
K 1.8208961853883632 17.517448612577336 15.611354450854147
K 14.215752861539883 12.82773287499609 20.968836355042196
K 21.304010147825156 16.019117800482885 13.005036142483322
K 18.24361750310936 13.754892723584678 10.580813117793856
K 13.76773271887897 13.364914570099641 8.800401977675962
K 16.537915728057467 8.879237233448972 21.33283789115641
K 19.060233077230745 12.293509518845289 14.880117186209462
K 22.020907076327727 14.510276589917048 17.4676903707264
K 14.862870672511306 12.2645027339157 13.037661648592602
K 15.731340960531977 10.680984092604415 17.33375791519086
K 20.06632427230232 11.06246267393524 19.40258774326015
