39
Energy = -32.09760491 eV
K 17.377780426688613 20.093821610091666 9.588374021276227
K 16.167734098709055 15.482722656755065 10.229842312996249
K 13.224065630193262 18.921582534515192 11.883284967664544
K 20.60343113914254 16.758009926237204 10.835919559830712
K 11.383928984287936 14.281617928611578 11.860755899405001
K 19.693643276202508 12.069077501938683 10.542270621740165
K 15.730583924107107 22.55590630900304 13.534657958427735
K 20.482378948279987 21.34596543255329 13.00626799273878
K 17.437986284126342 18.444187741046253 13.400343154869837
K 15.41936943671151 11.468870443071348 12.693824817680248
K 11.301473907948234 22.029777031021816 15.254317571400533
K 14.473859487483862 15.403979777771248 14.388337643049518
K 18.618945743173402 14.26121561273893 13.929149622406797
K 22.789639224108015 13.456159726886401 13.938334690140321
K 10.548888650666523 17.31111511840997 15.397566653506896
K 14.318553123009968 19.349274041464447 16.291363333951022
K 21.36008022956279 17.50341857728235 15.337709311625183
K 11.95230438309719 12.256941602570095 16.11368183988084
K 19.439545189743242 10.164611488473174 14.868552058168842
K 18.29206171346042 21.092795808133452 17.00476176012652
K 16.19219759119041 12.221640644566131 17.210499189660045
K 23.85302733322793 15.77735044963993 18.509437888692855
K 18.35158443621104 10.532362077744803 20.613603604753212
K 20.448903961030304 13.3618344605227 17.98664448205215
K 8.064628080771499 13.768699423354047 15.098546321145223
K 14.602069911086868 23.011236031727734 18.473793113330558
K 13.546642392233954 15.713949078888286 18.553205199914277
K 22.37484903972854 20.896006108827983 17.881766992464165
K 17.574384409968214 16.62329855127304 17.414719489077267
K 11.237684195135017 19.4547657692106 19.39706218501119
K 18.93671269018644 21.94413224633854 21.318519653831643
K 15.69647199454173 19.122774827001866 20.63749010877621
K 9.543909096175273 14.788271920348704 19.39218627982257
K 20.388105340962618 17.832891444124115 20.315301852785247
K 16.967430668193263 14.663725806150168 21.304594155662695
K 13.368961766778485 11.955028059373044 20.664444008916774
K 21.197380847226132 13.978002496285011 22.37127104987114
K 12.834355019852783 16.238002332537103 22.710155057698582
K 18.24618529773122 17.906715276445226 24.08918144858245
