39
Energy = -30.90612621 eV
K 20.320750017230917 15.967964163201543 9.200910471431952
K 21.528063356382834 20.101143771649305 10.738424660614209
K 16.6627488590617 18.895919712574166 9.879885358657022
K 16.192519094997316 14.46201390095767 11.222984816169994
K 11.790977888206632 16.975078649006953 11.243911606331451
K 13.006237471891042 21.32554326655203 12.313204651762224
K 23.606847148259643 16.1641200785291 12.754094817367095
K 17.996620580569786 21.630245019435627 13.407638102072914
K 19.445579144660122 17.27077358170851 12.997794243121696
K 11.111270272625102 11.030798655776767 16.237579222497928
K 20.377752379957037 12.765990029303461 13.164318982419145
K 15.082847148544165 18.067742192534208 13.788349547073922
K 22.12766291880028 20.20805640316119 15.303239757539869
K 15.905845434617927 10.81088778494045 14.390850349636889
K 23.88474636057986 12.414446957390279 16.168278236901962
K 8.795665518850244 14.702531913431638 14.320289420204091
K 12.99515117643229 14.24809530358488 14.433364290704743
K 17.25212159038939 14.626061075474468 15.501402944458972
K 10.870059835823465 18.568063097777618 15.529753669142732
K 18.27036579282882 18.82679907801619 16.761284937276006
K 21.62484594229371 15.905550616204463 16.660919447894358
K 14.454698854831863 21.426495503529516 16.89967294895068
K 14.745765653680847 12.470687334994443 18.652649211004398
K 14.308014428795893 16.932179746176747 17.830101664624735
K 10.615030050865322 14.995521409822912 18.538336298596416
K 18.156337143548107 15.527175060093363 19.59044447980059
K 18.966990577388906 22.6911433851284 18.500501980725545
K 19.647442402580047 11.699620938246166 17.631644961748474
K 22.094792368009955 14.224688225827762 20.756905504123353
K 21.329416436466204 19.00339973183315 19.978695949876645
K 16.61911440839325 19.401654201151818 20.549687518205662
K 12.040631569475739 19.491551265974476 20.41301034878372
K 17.814906340504564 12.726901740772044 22.623037452324702
K 14.185609595680956 15.656108314824747 21.95683175778398
K 15.003968846572837 23.1417499610373 21.36021883083819
K 19.21542718629784 17.14006097520288 23.515641783051073
K 19.09750989639808 21.825582972124362 23.047711102744156
K 15.155087429219485 19.544657534301596 24.433111640970296
K 15.95916972044084 15.39158728989911 25.96190787471895
