39
Energy = -32.15568267 eV
K 18.097337404636313 20.365442763925024 11.012243333870085
K 16.053434839732912 12.561205857655663 10.804308031224492
K 14.767695461512604 17.039303519588074 11.16756905686745
K 19.371430087702233 15.782313182455972 11.860792400490004
K 10.074607201875725 18.315184768741048 12.453347457744313
K 14.058254215234802 21.397584113594302 13.205931081726437
K 11.872482335849751 13.832367954428971 13.153644696079915
K 21.542997877730848 19.27757655202755 14.514597931272313
K 19.275919414099977 11.707874838137073 13.911024787284259
K 17.183146998707976 18.493685082211883 14.561978599593829
K 18.12438011727923 22.867242876978544 15.11954655163754
K 23.46816488664287 14.686961612517118 15.037600567133907
K 15.96430495616461 14.323820344299742 14.64317347883389
K 12.983575897493154 17.461819826252533 15.320591366567658
K 14.73174957459437 10.355879818896856 14.821285122595851
K 14.169424372026217 24.66178515840298 16.674783522010916
K 19.82806204329088 15.436810103943715 16.608820491609247
K 10.704357766282243 20.965638155866248 16.529142570687114
K 9.066288257512582 16.331943119374483 16.29361705154192
K 21.106349205924747 11.395742955625465 17.890029870251546
K 16.89642053777429 12.161713344189703 18.557197173279267
K 12.738713929332869 22.51563354016769 20.657903440387955
K 15.87842617652323 16.50547694451151 18.40084248303888
K 14.900022415299793 20.673239227343025 17.62897431368654
K 19.06848964691979 19.65534674680128 18.241480887807477
K 12.57467360606566 13.577763193747993 17.752384545847757
K 23.247978425842916 18.339898367559368 18.725402226330797
K 21.90556506035426 22.665536260879453 18.052795683185785
K 23.54704113660314 14.204735387647698 19.781889530048648
K 19.46756545227011 16.248139366483244 20.724726369758812
K 11.941433430605274 17.876841750687053 19.80490667540789
K 17.446048784046724 23.440129507513912 19.824862758140224
K 15.36091436764195 14.643882595552489 22.172582608617628
K 19.78578404173498 12.509836380659637 22.400382287713978
K 16.027412289031172 19.37616698427772 21.88557531706962
K 26.7158249500085 16.794925601784584 21.39126446951064
K 20.577355039118075 20.405621505886895 22.164901293555744
K 22.889646503431944 16.53388418185441 23.426122615877645
K 18.605930867235887 16.630256081663134 24.84098692584608
