39
Energy = -32.01888497 eV
K 8.70730611638577 10.679219671709605 14.483766756329628
K 9.63165113914837 14.525328210485519 16.486788202258783
K 9.958951854628493 14.498119327613292 12.032518469086213
K 12.864344220354178 11.563970872107667 13.407786890640182
K 12.32710230972975 18.469599050816466 1.0970986316350273
K 12.00342471403389 10.83915355574788 17.764485984202352
K 10.362019060744595 18.542358388278164 18.606496079086373
K 12.321044982398371 14.697116906638458 20.290690000244116
K 11.609055106487748 18.09805796692799 14.318915364413721
K 14.200109077979528 14.84586341945525 16.28798644412697
K 14.523219567327985 20.588312979732407 11.78734832651128
K 14.46277126353479 15.791598262447499 11.8028167729049
K 14.837360967509888 18.496217923904226 19.0575633630428
K 16.879393778552867 12.109350449424669 11.62689118464215
K 12.173726556711495 0.5227462601760655 20.645242226243912
K 16.38720588210238 10.92164031750058 16.25164803125661
K 16.013962850390747 15.970332136159277 1.0397533128299992
K 15.749916062009982 11.762121646303413 20.56754682542131
K 13.145884773867412 21.715106715012862 16.294563436234593
K 18.118497290401496 15.146004774043863 18.846035146102555
K 16.476066446492606 20.679187894441608 0.7350290955825759
K 19.56453368282929 13.091889314435543 1.0377234414542746
K 16.641384728953415 18.69758372944647 15.114841980554264
K 20.234448536293353 10.339391801269052 14.156257649891318
K 1.110085469431718 13.414751254153042 15.916243720515682
K 15.951214765360595 2.1592656615216814 19.204688957949656
K 17.044032651783763 1.5866984390175596 14.791158979114746
K 20.24208957314038 10.916145003243289 18.785772244681358
K 18.446572465705714 0.6613048883946611 10.534918629491873
K 18.4584411403024 17.748209178213187 11.052192428177527
K 18.7707910468244 14.84063036860068 14.646150345606099
K 20.1237115528372 17.74876376799538 0.018733714398011136
K 1.2349079879450917 14.187797709299465 20.28115802463143
K 18.825000865607922 20.71936574033444 18.473757482572633
K 20.981782931016305 13.793086856089856 11.04112223485308
K 21.705215072139772 17.547266564511975 17.388543519228847
K 20.62374610817154 20.654381248584635 14.13556993367925
K 0.3576687043802481 19.88591091611059 9.794129484067149
K 1.2440990371611447 17.059953873649853 13.150050854059883
