39
Energy = -31.41076522 eV
K 18.384286844117884 11.990674985203867 21.822017093521396
K 16.619561798440493 11.556762481495435 17.415984160697015
K 20.812048185525192 10.651836076355103 18.34800305545521
K 12.779047611338248 13.600425325378247 17.068731993639666
K 16.33191472638952 14.922933298186999 14.641986724983852
K 20.26425132157654 13.413768832890664 14.935150008288879
K 23.20382720980191 14.215585929702145 18.202547733652064
K 21.44775486337379 14.947177222592046 22.098971829851628
K 12.77744671650236 17.198879650487886 14.270086874674913
K 21.104702696215107 17.789672821813003 16.626241507141334
K 14.690318660537237 13.74199936591419 21.142190925369512
K 9.548164089662212 17.025189376868944 17.043367250834567
K 14.22784299955077 17.357811586547154 18.59312118842763
K 19.56802150403609 16.94424077758694 12.42998045118342
K 18.486472315141366 15.167983647048569 18.714683712507696
K 0.21502368492220847 16.115444702355745 13.365627202130597
K 10.752397172801109 15.270558092524164 20.79046301266272
K 2.539121593281481 17.158397194388588 17.081969437886983
K 15.763344100706869 18.261667557552517 11.488566089169172
K 10.25286689779866 19.765800477230844 20.376857012073557
K 16.727450637480924 19.147269353230698 15.774568882752689
K 17.58517516559358 16.410992344759062 22.922265759781997
K 2.814118009812467 19.718479451462933 13.640166590446675
K 13.625686757165756 18.052570572803727 22.772042898809765
K 23.45061859242847 18.194998218493748 20.39166571998513
K 22.0204957365637 20.515431717948154 13.254833635393522
K 18.523717009314794 19.374840902400855 19.9229777995231
K 13.71930044169101 21.810841463856853 12.711124608069715
K 18.076055460358013 22.03892361047585 12.88341985576664
K 12.242708237820194 20.830440972828214 16.540323452670613
K 16.753100882355632 20.9365346372107 0.24369588416681856
K 0.7266076616657265 21.19429704913445 17.166112461730975
K 15.934103657727803 23.461276117812666 16.490635905855726
K 14.376275593881406 21.542488164492372 20.13267162950492
K 20.87426725718447 19.185155616259692 0.34394512556511186
K 19.979300070909996 22.102270280412803 16.87760053946436
K 17.925235282105852 0.4906749370990589 20.464063033500103
K 21.915606153414018 22.253877712737044 20.828081117101235
K 19.993782685846433 0.1765460289857275 1.0358635049121967
