40
Energy = -32.7420524 eV
K 0.5883105180856003 14.878733282495206 9.70352910527267
K 1.2961657659749013 17.114595682974517 13.759047136455175
K 2.35582567727477 19.015407993894783 17.84471416497938
K 3.340938589948388 20.78083358293404 21.80608941541045
K 20.11344657871948 18.13893311259385 10.996809687290726
K -0.9103140587258817 13.028635886810795 13.448686369079583
K 20.85818920235954 20.43664489039998 15.271276736035867
K 0.19115463753475262 14.884801953592556 17.459061911786407
K 17.117583922554147 21.230739827252272 12.803905163657397
K 21.80613501656262 0.039134939309262706 19.336932323845094
K 17.899742364496426 1.3115800238841673 16.819288077937937
K 18.58907875756454 13.878856160962037 10.025199135496973
K 1.1169815510122023 16.74437595264136 21.585256548351293
K 18.68504696417997 16.244001699745343 14.882212878841909
K 14.152299156208676 2.1951561684189795 14.494284443925235
K 21.191690178847004 20.102376434457916 0.758804889942173
K 15.641353385656139 17.098977765088904 11.49072247543237
K 19.00249073626981 9.697291103467006 11.913804280968302
K 19.899049384400254 18.213043835952 18.99571641429133
K 17.424202706982754 21.541227189271698 20.807825139615254
K 13.445901207254138 0.38842961863643427 18.57731303229494
K 16.392166754114154 8.232138860457107 15.255459205383515
K 12.701340773380581 20.26422627634146 13.236829524236127
K 20.10199154473575 13.785946921570961 21.03581651982724
K 6.952366893243976 21.135298184074372 18.928749735740958
K 13.396730010568382 15.92408406595532 15.057456819523674
K 15.928024475193775 19.493418167008716 16.668036643019118
K 16.244079215169844 15.285054914625412 18.62747954712953
K 17.506272708297118 17.029868499032098 0.37569345988906844
K 18.87388816353409 11.723987223030601 17.101088340607166
K 16.049937875435813 12.676679763163335 13.527777083013786
K 10.025190494835705 0.76832315945549 15.637896140738448
K 9.112637867221387 17.86943501584472 21.216005765134874
K 16.05015436185414 12.06109943209749 21.748335929860033
K 11.540250434159937 14.848331504031822 18.97690670778122
K 13.79264016113624 18.69197234707571 20.49804849463256
K 14.128820386268387 11.322170098478923 17.577555388697228
K 10.783288638021581 19.004526068882136 17.12826514549798
K 11.698847975837847 11.144260713469187 21.57224362210085
K 13.142636833006765 15.244526280764632 0.7330273140756562
