40
Energy = -27.89559968 eV
K 22.894369342831354 12.234070982923482 14.693868157473302
K 11.6409246039075 19.457933555159514 21.714740429374565
K 11.012952750148294 17.617264097261764 10.23178476384583
K 15.604730970881743 13.247356184529128 13.94267326614885
K 15.688575667519379 20.447113010752545 15.449462566055287
K 15.94919262764263 19.561970302879946 20.0864420453744
K 18.935753788699657 22.356447332506217 18.044283434926207
K 20.470250521974343 19.257904612779022 21.210037997256713
K 20.06088048783259 17.361975434186398 9.794482220783815
K 19.39676048764519 18.257616366660223 17.15170061311962
K 19.317327798490673 14.08290497848206 16.076085255118457
K 22.709253391997876 15.681693597634515 18.43888409365003
K 16.00948856815831 12.69013693697437 22.943531451690504
K 19.980663759999263 20.672249712339823 13.525519294302077
K 8.455412767360942 20.1630334002764 18.647414180161526
K 18.28362180397014 9.99415016221218 14.808463529938399
K 15.911747173968877 11.899818398517679 18.433867220942847
K 19.46644498822409 13.18614122947731 11.549320422539626
K 15.492418952437609 10.406249203220518 10.914759099574287
K 12.854858415926822 22.394537795103844 18.4089493820366
K 13.344685604511078 9.875479864594476 15.077699423767216
K 13.585786223213562 15.550182193752935 20.874068372698446
K 12.102270646841705 18.283406680160894 17.557820134046995
K 15.699239578269099 16.172350155741235 17.190964049934212
K 11.865152936625638 13.826314609932165 16.536011403048512
K 17.745614597907547 16.98755619243201 13.25567184651161
K 23.04678961802172 20.263725691450254 17.24126041617918
K 9.169456553328548 15.861781827839811 19.583764236052808
K 22.268909811496137 16.728873608787605 13.86391441833668
K 11.329661402694118 20.651056072967357 13.879915295442478
K 15.48685864795931 15.08272111288919 9.881879733244599
K 9.068105117750559 16.72537569910528 14.556093369159468
K 16.43130671567398 17.32963275274283 23.836044048392818
K 11.756432129995094 11.618983165098829 20.225595769248027
K 15.314108954177724 19.65033170762978 10.866850357326848
K 18.52699634572083 15.283005880247783 20.507178173858705
K 13.351129082502675 16.87950101826022 13.575739249837792
K 11.66539864326201 13.188706695804612 11.923369298354784
K 23.86619359221669 13.943771777410374 10.774465871147042
K 20.534653364641933 11.421054435702827 19.019803545525892
