40
Energy = -32.90205617 eV
K 13.819788319468666 13.470903075246387 8.34498511536316
K 16.78921806564678 17.79692691626581 8.736787315079532
K 21.410250333213266 17.106711273784263 10.505135718733225
K 18.098023138169392 13.319478024016952 10.388223020739185
K 19.27034992596725 21.354239984798824 11.6877088634463
K 13.804012579624956 15.991799559763546 11.611544322117025
K 10.003716379284997 13.831236717060241 11.69008357577754
K 14.57090730427136 20.505446545753795 12.215187549371215
K 14.184051375578012 10.92092272359428 12.12452822394218
K 18.040756688530873 17.162395147989507 12.869828605985491
K 10.370313285077922 18.147596857782585 13.929898251988803
K 16.5447340408715 24.209607988561523 14.559115439274285
K 21.415849398341756 13.972757303358911 14.055968029234004
K 18.88688262084704 9.828974080003112 13.881221261636783
K 16.58333302454477 13.476429280274935 14.543883858564723
K 22.033819894584116 18.78576374072697 14.9714060112777
K 20.751880561551115 23.281615687188943 16.201722750807974
K 12.177171981840232 13.38991291957484 15.527270224034126
K 17.65415345473172 20.357257684285702 15.764293707264496
K 14.531040986128511 17.309272271792757 15.445684520323116
K 11.573823297284173 17.325280753856838 18.28720877419246
K 8.193616716735544 14.95182918494088 16.75715131148573
K 18.910142214771657 16.411175244787895 17.099688114931485
K 15.300050704154307 10.007373113094395 17.1011836138612
K 19.316545456493166 12.349253963203957 17.820770845297506
K 20.187436868251314 8.377576644488583 18.21138766643866
K 22.809847461668863 15.28488283639881 18.584608996002046
K 13.092542422297816 21.444155109891227 16.673593075349018
K 15.274583988624354 14.247919825457613 18.73465139464576
K 20.461475955561703 19.80598738213533 19.50823817466535
K 9.108562369266256 16.464642450346076 21.473876880045726
K 15.820548348009153 18.549323165090563 19.318504585966018
K 21.48385043950707 11.63447849845393 21.463383122545295
K 16.74202899099273 22.928874620300604 19.29660099959941
K 11.446530325021131 12.738918954825934 19.99437486992028
K 18.865284597029127 15.497007497814321 21.583083760636864
K 16.772949838670492 11.262905940417859 21.465866823179862
K 12.391751364317663 20.387841395800162 21.457516988611264
K 13.844837447769974 15.976640717556323 22.543665692286304
K 16.992023577749567 19.663370661764414 23.09885368782849
