40
Energy = -32.92639856 eV
K 12.34524848715395 21.220331742266225 16.665056822702617
K 15.25784016891871 10.467464078674434 18.842491072333566
K 14.90058707575502 12.88847149264308 14.928806036188277
K 20.010195019880847 20.81600306071574 19.79734271174945
K 19.560515878755442 19.674537754324742 15.448821114855361
K 14.712275829503985 15.843281303848459 11.221622217537197
K 11.430510493188264 19.07934186485307 12.475725669279639
K 10.48607446013267 10.248516182240408 20.062735980689965
K 18.460424465862115 13.029119015672615 12.03980523752511
K 17.448750075836543 16.135382422643275 14.864893265828044
K 11.856988714433792 13.613924410311338 17.932470179022687
K 13.26306206891594 16.962358514849395 15.75797994140019
K 9.101734976218234 17.077420326169786 16.76907932484478
K 17.468690030227442 17.255921762304077 22.154719434235542
K 16.99895783972332 9.174493050610266 14.302905243021472
K 13.771039482196336 23.372304249710012 12.69857229848685
K 15.132655717689659 20.057556449242337 9.522404029300647
K 11.853563941085364 9.902225143015594 15.513560937798106
K 16.092324701663337 19.30120011115474 18.287037854138596
K 7.99435412359342 12.185287730589714 17.019017854364147
K 21.72133732748493 15.537881684372929 14.240207688435632
K 21.927377566576425 10.949539353683264 14.227803999136755
K 9.0040122291039 14.504150567933976 20.86104234169043
K 18.973951051603567 12.264805749590343 16.85579367005817
K 19.7947073570485 16.488328666323984 18.453088129786135
K 15.838900822706007 14.874258094411108 18.830957561975858
K 12.404955581582586 17.676980986013866 20.0913915599443
K 21.82502836605925 23.145141135571244 16.047563263596633
K 10.757599017234378 14.220178727956215 13.431112711075905
K 13.757957438190681 11.17699674883407 11.356395542511065
K 22.858365794972027 20.264253584851943 12.943946920365098
K 18.56741154629272 22.375725221633168 12.163245149010422
K 15.576788936851202 19.799776348966503 13.708859489419261
K 22.971944516273147 13.578808084702638 18.316951395671477
K 22.08707235065549 16.795944565453276 21.889694943119665
K 16.87532311777297 23.2195256266268 16.40909160029865
K 13.50595588372795 13.308569566789181 22.1143004709644
K 19.139817093121138 13.059894816165054 21.2148973833216
K 23.347302074715213 18.69847595040393 17.44574663704234
K 18.883980038650456 17.721205515233777 11.058443978631088
