40
Energy = -32.81452397 eV
K 10.972782628097063 17.036705591853348 9.77540653515431
K 13.875934819683307 13.54721457359518 10.932961905137745
K 20.91887326112238 14.767799568784671 8.904380236736543
K 16.597160905538786 16.92466148470685 8.565683538267415
K 17.91596949306225 11.585182536735793 9.573008856824565
K 17.106159609002184 21.21461283619336 10.992580613160877
K 20.432409863272458 18.55779410419584 10.9575514085772
K 13.458572997634885 20.522973714299603 8.777597580066734
K 21.220938608596374 11.984258435625764 13.167564313668544
K 14.340149536888797 18.0178202207304 12.171702632469763
K 12.191610770681518 11.310094121521917 15.460236754314343
K 14.913980363449074 14.731974929533223 14.949374894360524
K 18.14716842511577 14.938941381052631 12.12612110674966
K 10.602026093357003 15.662541561647828 14.126512127074443
K 22.065714814187537 16.426361916251174 14.394096160901654
K 16.716908547280294 10.735984119486915 13.9785478915796
K 17.69395749997498 18.221793203672952 14.935595217233905
K 20.13758126252336 21.409495574398008 14.820111019825756
K 10.879777433714617 20.373012006529425 13.397298312443311
K 15.024182056023058 22.154805810733645 14.713821519659225
K 16.568809630018688 20.84519545335333 18.742257319851266
K 19.040307139466567 14.010358222598263 16.301926621189818
K 8.445154645406559 13.432718367997083 17.649147518983902
K 12.268083081192145 14.883961679558928 18.354003104953282
K 13.37043886948183 18.58421212291861 16.425403979551803
K 20.652453412539117 17.587890919796816 18.571867112398735
K 16.367225265761665 16.410068996638866 18.80426342506049
K 22.91302575637209 13.459437407176784 17.74561389696233
K 15.115202126512301 8.064819417025024 17.505982795973082
K 15.738625834591568 12.091019256923511 18.292281957733053
K 9.332333189083448 18.116974045078834 17.921833446940656
K 19.503280467661597 9.9267561750998 17.71054614631513
K 11.920931464448492 10.873396640829366 20.15407365601496
K 12.021465867751354 22.160815946788126 18.08645244848775
K 19.177795201136682 13.571759143364678 20.794168745299757
K 17.555373042430027 17.751437143246946 22.545490484867777
K 9.963660626022902 14.860509216311746 21.828767872449596
K 13.056887511671876 18.480040970132226 20.966352777804556
K 14.618833552069379 14.112913584021507 22.259694510036166
K 16.262588757537365 9.756022029952197 21.724053985280943
