40
Energy = -32.84729305 eV
K 19.483514238609605 12.373465820565292 3.216790552976776
K 21.558946889007498 13.883873002659547 22.51597442819703
K 19.266246161739755 16.732385877926433 2.189532807153975
K 17.356838897711317 12.010339506530821 22.423449966078305
K 0.9020366298815989 14.862402517939211 18.51727926940126
K 15.525855991653849 14.348070605320324 2.5672066138399092
K 1.8295013700212643 15.95165364249757 14.15445889846191
K 21.870948046271668 18.00166453311057 20.69838445290582
K 19.767607202198388 13.04873869313213 18.488877280506898
K 18.859961018440593 20.522282199291585 -0.35077511882101914
K 1.2502332916754144 19.56960145175932 17.234105842490475
K 17.739178049284845 16.3176431520368 21.058809713305394
K 22.480458753045617 12.439854355309196 14.889983178825105
K 22.074553329709747 -0.698569691510187 20.235970824474506
K 15.05520134630061 18.54530762804292 1.0793625899027741
K 19.227878512523866 1.7509976831546339 -0.04687367984149506
K 15.105565349423332 12.305218256515898 18.203914777197387
K 20.91664126117767 16.98741486497432 16.27190941654016
K 13.553567143156576 14.84235375274285 21.741487495807892
K -0.04695862626217731 19.609558251232116 12.754716662145604
K 18.808799270753326 19.475803855430314 13.219275533039676
K 15.283684958834655 22.84974088561375 22.125002007541806
K 18.25074821003567 20.288717396973073 18.33759169858392
K 21.27453786697926 22.491640115939425 15.779816749040558
K 18.20144312407939 1.480966954090452 18.8339066892229
K 12.007930600375238 15.824664721160762 17.4305663118704
K 20.832244432078998 15.587943023620063 11.922694920469324
K 14.155777439574269 19.09120823743177 19.911622083643934
K 16.62355675270777 16.024725871249316 16.630569313239842
K 16.960346769045408 0.22589103430961785 14.497469225474287
K 18.007300767531607 12.573924930829905 14.232796223987815
K 13.415808571493724 13.44512498713788 14.03178312757295
K 13.927870622206372 0.17633610401493538 17.87894187437724
K 18.505098036253788 18.120441516749953 8.567169704563055
K 11.633990089251753 17.677899353390654 13.050652900121529
K 14.834889972329417 19.54579511426794 15.383400903198975
K 16.024506945717427 16.12748628738853 11.785851576685314
K 10.621594054094132 20.10347911566374 17.0486123728257
K 15.091562328157064 20.431536472122 10.871351424963029
K 12.287482503055172 22.668945287564664 13.753638098356701
