41
Energy = -33.438226 eV
K 3.258345154420437 16.09949813887386 17.17980318529735
K 0.26471327547447426 11.679442520655376 0.31954964379120043
K 0.7226439111461033 16.059618670035395 21.03429628775247
K 0.18420996926619398 12.766996064411382 17.940459390379722
K 2.1803745066301743 19.33772814541848 13.894226937481895
K -0.016063971264684253 19.15237199346735 17.879144038415554
K 21.534752316272986 15.518868552642207 14.437211377891183
K 18.58013726039383 10.049369203455566 2.185252967880596
K 18.71851213786978 14.511973997853024 0.8432427660533264
K 19.13375741968665 19.051125772403292 21.58068024829528
K 17.93083352542948 11.28201707476508 19.573008602561895
K 0.9081410612498916 0.5530765744925655 10.798727265110717
K 18.603985059631018 15.745469604035486 18.25122780128446
K 18.62297290114663 11.940727907182753 15.161372824362525
K 20.844158083429267 18.286191503664188 10.771359339962462
K 21.23485705215807 0.7256349101044356 14.947008697444362
K 18.195670630286507 21.891435996744864 18.286987633659606
K 18.463753959895396 18.809958967759403 14.635131087693013
K 18.622187559939594 14.256397734125109 11.141956309335566
K 14.789632453216228 12.045627464519566 0.9810641525256317
K 15.179025598021042 17.163103087476706 0.3658521503276748
K 15.734032704304981 10.767705790496576 11.926818840312034
K 15.359765637234755 15.200077942489461 14.294253623970997
K 14.86851050042856 18.617798093612464 17.738712441158523
K 14.999531277341138 21.554594914269696 21.45696163658137
K 18.342938102707038 0.1394382960675977 11.230982119093184
K 14.252682477059487 10.96856372596392 16.212936246627727
K 17.150954401806032 2.5055414440371577 14.789281694974632
K 14.297846333137647 14.263826879922687 19.077591938668792
K 11.508593091950226 14.985497477475077 1.6933698562652788
K 14.264043212784879 14.23783239638428 9.496056659645753
K 11.664964233530258 12.445703333846591 12.614922986242647
K 16.26072021418517 18.069630630376746 10.405011054905732
K 14.439395574601901 20.66409478363052 13.563156057830039
K 10.988312773878949 15.00904942555047 16.103899485921467
K 11.007611391470874 17.513918703980057 19.925086721439325
K 13.686975366933428 1.2227534981873454 17.337153304252947
K 11.691724363025592 19.616969457153733 1.9836642101837172
K 11.8464456613564 17.13888109527096 12.102970332844954
K 10.661965514962173 19.592408882273944 15.908466153919823
K 10.578650137115229 -0.007648313834086274 20.107563110980305
