41
Energy = -30.31748117 eV
K 17.507487285803684 17.125766814805402 10.567111794704525
K 13.937720381124773 14.925551159672711 8.256051378569756
K 22.261215527335477 16.691754644393626 11.506197971576128
K 13.683774096816599 10.471296092993436 9.728788346601359
K 17.84506673514152 12.575312582009337 9.20168477578744
K 12.82875113928527 17.855471021649702 11.79292185885769
K 10.59673674586724 13.695289834215684 11.519606329817119
K 19.76846728476204 18.082536479056305 14.680573900618533
K 15.99944255098562 16.566653922779675 14.682338076799558
K 20.28645066159434 20.8423431370611 11.69197102482253
K 12.290549864795823 14.710683713871283 15.41189145042729
K 14.970560358845399 13.567100279579833 12.116504266317348
K 17.048761629832338 9.681397322357753 13.137551870402337
K 15.93921784371151 20.850448219743882 13.531753867562143
K 11.326071515824722 21.882118902188772 13.940822315351395
K 23.548644031341475 19.806779775260534 14.88056296672157
K 12.590039839565545 10.361754254044945 14.4274117618401
K 19.389276917997606 13.67381926318653 13.39719523947363
K 12.887612739126881 18.888436757487547 16.402666114399082
K 9.112966758192913 17.66904443693963 14.733033705557467
K 16.95231243760928 19.229871187329323 17.872337823494842
K 16.013520204067735 12.445780701860558 16.264999451383677
K 22.92600391989847 15.207514334113016 16.09178568557814
K 18.922203818843496 15.247028001500743 17.75427303553227
K 8.68964981258511 12.885098391266405 15.800925420285276
K 20.095188220235613 11.065696606396 17.15435207671118
K 14.35663749423941 22.79088037343156 17.574380719632135
K 19.611385112071012 22.285858922330856 16.243655561570094
K 9.892779819944261 21.033247242325828 18.304898325136516
K 14.726721425843738 15.6503969462864 18.904806653488034
K 15.8698964197792 8.727476079391844 18.155381275255717
K 12.415852822454688 11.885393632075072 18.956907390199202
K 18.122210160126507 21.916651290380543 20.69755941204098
K 21.773740060582938 14.166655556614495 20.606440041732423
K 21.36190471996414 18.735620339292186 18.952998790786953
K 17.42572432996998 12.427229623300033 20.78105041070166
K 10.403013490417358 16.339004141080853 19.22324667158707
K 13.503293450440614 19.343112410128075 20.91508993981521
K 17.833484412472423 17.029792008911233 21.74640649431088
K 14.526055718673703 9.942870484399416 22.474464206652865
K 13.585382183467228 14.54703705592663 22.743175539535734
