41
Energy = -33.63200888 eV
K 12.925064333550853 12.75794028719399 18.05108533791745
K 16.223629703220656 12.168909642053015 21.02809231504873
K 16.78758518681286 11.833920658231008 15.85492088107499
K 11.41993188425584 16.9705038736368 17.473838899464038
K 14.44946318223809 15.466659516172363 14.478104477786303
K 20.5193056187874 12.586178917857325 23.175875939047053
K 12.91704793199804 16.234177865960458 21.591516507435273
K 19.934303775723397 12.914007329438945 18.710576370200126
K 21.306617420816018 12.26646186355612 14.444391543642947
K 17.35681714629491 16.059020367252018 23.183762400797484
K 17.912856881372868 14.179409802172634 11.840936593873947
K 14.572539731058493 17.360812110997237 10.496848199201924
K 11.221348863395423 18.833230457919623 13.29606228194192
K 16.23831169456997 16.031919065030284 18.815493999142028
K 8.104631148284271 19.901343299045482 16.628194664910406
K 21.08438471269261 16.391791363942797 2.0467534317012306
K 21.450548283522235 16.472525808460038 20.809172859988113
K 11.432159735763992 20.62753708165253 19.89317606554436
K 0.5441737850253567 12.594210236883347 19.90382909120567
K 19.169814393998664 16.24091485372028 15.801186149491155
K 1.1383563826533316 14.412929538851596 0.3532496552266279
K 15.063982743804925 19.59542403140288 16.279166077214594
K 15.587563545035968 19.929815490865362 21.399965219752588
K 11.546346642361208 22.597444731130718 15.695177454609372
K 22.048628076893003 16.203990658700416 12.33032164982828
K 2.9652926591369186 16.41617571722169 20.319134944220764
K 0.002253280611834908 15.85957580002392 16.653378096306064
K 18.15813228847553 18.888727211679868 12.524946151978781
K 19.194920064904945 19.93974526616464 18.743932934857284
K 19.899161947125457 20.041666079927406 23.267277519053295
K 14.554541886420887 21.74743892190642 12.228505604967133
K 14.905780932169202 23.54890769664389 18.730254053951594
K 0.7614795237176842 18.92126317931763 -0.03448061344023012
K 0.3499834736068415 19.9419256388012 19.164946698140124
K 21.9852354176837 19.900725860754918 15.097546740269308
K 18.241529264697437 22.70352315990842 15.112739934643425
K 18.495766239376913 0.2039403491222466 21.308524364439716
K 14.881404197608335 2.019018352246814 14.7619134044897
K 22.88521262045206 23.203594781007112 22.12571234789507
K 21.78453354420185 0.03394978155988447 17.762036546355628
K 18.25234779702441 2.9266678544860496 17.701486705843607
