41
Energy = -33.55241337 eV
K 19.98462629068114 9.790285499194901 21.083979978419627
K 18.913940516469275 12.215888981953832 17.040418061516945
K 14.505331947709484 13.673995570207905 17.0353460125109
K 15.907410795028339 11.081847082558257 20.324965944042813
K 18.43836069015633 15.87075745825336 14.496759118205901
K 18.15253455760496 13.515980773285635 23.237193298224405
K 21.847062826659045 13.669567023498475 20.385924663324168
K 21.812699391290288 16.44559655055616 17.032465810491907
K 19.918928319164174 14.771184893235251 10.562249095024113
K 15.877171672216912 16.663734846251504 10.01318391527683
K 17.751606124137794 16.107802512719864 19.414483713830883
K 13.33204047062024 18.12156601503892 18.174616769945384
K 14.065820798669503 16.68612295300504 14.042814156227882
K 22.777542328537837 17.406058176348957 12.74582051489773
K 13.717045196961895 14.853273800581665 21.459047936528982
K 16.06702600691817 12.720445057814993 12.682012928486929
K 11.45920800902722 17.78190971539791 10.549447230547111
K 16.325714519276673 17.752232085994645 -0.006964092577260564
K 20.930345159355063 17.202123623270957 22.957864876400066
K 1.1065652982454262 17.383421626318746 20.36291416555367
K 17.307529482442007 19.587060283844355 16.099116856832932
K 20.75022970174312 19.992284273649148 19.54074876628317
K 14.808495259937004 22.03809257209964 0.721445432552105
K 14.459799295436524 20.732358876666527 12.216796455804957
K 16.238804564768426 20.707735827572353 20.34795270684441
K 12.032975160358507 19.225513839414297 22.224746057592686
K 18.886695049166086 19.45843141179237 11.651030395128863
K 1.866369024859977 18.912116438657588 16.26810055706152
K 10.727633141040265 19.646708084037993 14.756072664590947
K 19.318813282872558 21.46173457844647 23.650445725881067
K 0.35991749409974155 21.054287894669297 22.59440978345012
K 17.73480284184197 -0.20327939096722653 13.624086208355973
K 4.658697527139983 20.37199479781186 19.62458001448143
K 21.503075540134947 21.088246677078065 15.171968797267512
K 14.010285391188717 22.564926706101925 16.612055982636136
K 18.60967370823267 0.05166961428048918 17.855161212728735
K 16.969464031660173 1.4391644268047017 21.780089659938458
K 0.7685898311456861 22.576011031446132 18.46715880729198
K 9.426642374279739 21.101290214212803 18.862153605385927
K 12.612571395238318 -0.015638313593805263 20.74923057155774
K 21.45316527299311 0.9402240337297506 21.10763372545967
