41
Energy = -34.00846846 eV
K 15.190093124353666 9.200879658222833 10.451476218889864
K 16.120269958601078 13.067255147793547 7.801583941553579
K 12.23219401377662 13.00710032274915 10.679313499648744
K 14.923679683467192 17.00982306920346 10.23675056882304
K 19.69173583698186 15.680227053008196 9.90007334855709
K 19.698322786098586 10.77917594248883 9.920651056108188
K 13.373187343637012 21.56178967208224 11.26602989149237
K 18.302131765692845 9.089283243303342 14.294525604952577
K 18.227525084689677 20.288518048341242 11.723984446763177
K 10.63119320043625 17.544712090071556 12.579016246304043
K 13.561985182095922 10.321074342503087 14.742708356539962
K 16.68273219784118 12.78828395790446 12.062950689085651
K 13.806100810465988 14.858286768355851 14.254228876813643
K 9.759371813340103 13.4798989364316 15.350558970315971
K 22.055568207631826 18.01192211873526 13.761834963167376
K 14.681127716050367 19.087663114656788 14.428408891166391
K 18.041882593984603 16.323916675693223 13.813685387840321
K 21.038004716018254 22.542657411326342 14.919249568424211
K 16.108431312134247 23.199511820416298 15.081441095106385
K 21.12614457671861 12.978547880904943 13.787953698884841
K 18.548933417507623 19.591400453540146 16.48898255756113
K 17.30872659549718 12.727075539149425 16.436466532355
K 7.755342109247994 17.695878711034105 16.388260018390714
K 11.90782716726805 17.276910894101942 17.224459849640937
K 11.065719202832128 21.404429225942643 15.55586375176018
K 18.78884645550197 22.789009980273626 19.204496364419068
K 14.553858748998067 20.707422800806604 18.97099457586763
K 20.66546815766708 15.547313988337406 17.564646193923974
K 22.320706519818028 19.578193233648843 18.694977387898078
K 16.181380598831126 16.548540104457828 18.03737325000592
K 13.43015473136995 13.31199560663886 18.378958761331017
K 10.931326658283036 9.970544031750975 18.739918752288826
K 9.992959128326357 19.68701947348933 20.0376262046455
K 20.562014661310844 11.080501680891249 18.69354400703485
K 15.785913995836108 9.51239614433618 19.04658530716078
K 9.537935184803548 14.721958352655852 20.01690740566645
K 18.469314290089915 18.397408913821778 21.17802925376926
K 17.355166371802444 13.586720505094288 21.24043365879099
K 13.61418926639024 16.746720295030016 21.628665034497455
K 21.665609993009195 15.04312413268811 21.723297515147976
K 13.050710851887928 11.998694688414835 22.43687432770188
