41
Energy = -33.85671472 eV
K 15.061866480507234 15.116045508292956 8.869683919504336
K 17.80317386261328 18.818547554379474 9.858873393943284
K 13.071491686439815 19.43053140142403 8.63243380618487
K 17.55117588855858 15.39014875663799 12.451448121181222
K 11.115589646659851 22.925831506241682 9.924768756530128
K 10.497602659189285 16.057729950985454 10.727288871800774
K 17.22567321039946 11.149456820777372 10.993140637649136
K 14.698352133800322 22.162059000246835 12.252110312396999
K 13.977775494848197 17.94992347251409 12.39964505037516
K 13.328474055033904 13.22454354030345 12.699716656176376
K 19.899036442451138 14.633403709359882 9.1343674464162
K 17.9506779295044 19.682049842825826 14.384240869814867
K 10.443962353098984 20.213747425726535 13.376826087232516
K 21.18427586221147 12.572417466792617 13.34966603421459
K 17.03370326042029 12.208004967134787 15.340222452021603
K 13.967971742135918 9.020138612614746 14.769166635863249
K 21.60980359975228 17.300071277879404 12.653000565436516
K 9.769218160127878 11.471614066679198 15.048998709355246
K 10.611754879303506 16.056857303873073 15.358500156148182
K 18.832718805677427 8.554873853656074 14.750106290150299
K 14.89373711788834 16.324780414425625 16.02539852056006
K 19.551815004503148 15.76349652552167 16.242704374498427
K 23.63804781349718 15.286340375112399 16.62320000091914
K 13.695460351526071 20.52406665031141 16.551471317426984
K 21.451155960481973 19.549850636970834 17.53390711573829
K 13.162129820925324 12.68755735737827 17.355792060319246
K 20.58228524989479 11.722046427847932 18.09346297922064
K 17.596398273021787 22.618972649725386 17.896124596268358
K 11.317387215727305 9.299864365895184 18.847058654404258
K 16.235729458497076 9.556435761736132 18.854063522519006
K 17.221433020312887 18.464009382491014 18.82306349491798
K 16.845060498531588 14.077874107656575 19.38127125835317
K 9.523403896907952 13.737071293491717 19.315462102239405
K 9.938021565834893 19.18767842919952 18.45018411869849
K 12.993745280402035 16.57021579627346 20.082072334305604
K 20.79407943706582 16.000891252183028 20.554660674360836
K 14.44438959055486 20.794637078191695 21.114973618726683
K 13.561738176022287 12.328208598730733 21.758046614745084
K 19.23634120660414 20.557921195384942 21.73118943922251
K 18.499484328125867 11.860772556095288 22.395112465576883
K 16.705697536553096 16.67115206264213 22.918414920192774
