41
Energy = -33.51126029 eV
K 15.098613137970926 21.62614900376854 11.862536067690266
K 23.06335490629062 18.99628320996948 11.911152124273288
K 0.739925762888599 23.063810217167088 13.186506596568227
K 4.217442742125641 19.948152931537294 12.874462581305682
K 18.460375165063653 18.256505866080325 11.377291897638166
K 19.70453962256014 22.482892471158745 12.464045337140016
K 13.997809035719257 17.22632117676082 10.76572333529129
K 12.779647078288344 0.1998678345720013 15.324641729630835
K 21.315976203867912 15.104029740459103 13.55822625841576
K 16.83732850419561 14.299013146648928 13.164106473931493
K 20.27874940677936 19.22999449933436 15.586051298230228
K 2.522553675187737 16.118459828783365 14.300657434606586
K 21.54118894943878 -0.022677954473453645 16.81530318309723
K 12.399794956739317 15.005009320644419 14.294248390889903
K 1.3278989240798107 19.927103639853573 16.45230104670326
K 15.55930455455725 18.5074465316954 14.980934929744112
K 17.00460942201163 22.722465027964983 16.163714468009275
K 11.339441732055548 19.58539777481146 13.713272234139307
K 19.788848490626467 11.844988817572656 16.45766007075401
K 14.483461610684344 0.9257252811523805 19.7336442280434
K 0.8705896637436156 12.239562665206728 15.723697643647613
K 18.873964792816448 0.32418840541468225 20.481241451755423
K 18.29112732362167 15.72100334281417 17.283846970348527
K 12.800767573693387 20.333687496833043 18.2327528156734
K 17.198928754863474 19.599067792908937 19.389854831875706
K 22.86884618566641 15.920414991405455 17.924045443947232
K 15.15321892007729 11.754020843051286 16.486661795714564
K 21.72076582690473 20.087362553069408 20.04254303117453
K 14.07710063330537 15.930168432589655 18.481243055174833
K 9.526435114732777 17.197242936749586 17.188768283441238
K 10.940876318757518 12.840263533080519 18.17947708796018
K 17.742018663844497 8.7532000840898 19.008444299822244
K 16.4602275958247 1.0710157463188865 0.6391372746899574
K 20.070330768706626 16.185029860764367 21.57208940219018
K 14.232232765466927 20.927572762926783 22.674989985327155
K 18.67084185866891 20.350590652212873 0.2317773182989464
K 17.077497924428254 12.806948304163594 20.667029351041894
K 15.746859763116788 16.77252554331076 22.717797750357803
K 11.148270519969163 17.53504076383807 21.453084970062747
K 13.545425627806145 9.54994618534336 20.13112294336034
K 12.811929217710428 13.353144048098343 22.26646738210912
