41
Energy = -33.92067205 eV
K 16.021683579882556 19.385205067991937 8.92616449242091
K 20.63034140743089 18.580908590863505 9.336876304584065
K 17.493941678395064 14.913242930680013 9.470146976107255
K 18.545059808466274 22.369770366348636 11.730285848120102
K 13.426368472932953 16.554190784166096 11.707678466536912
K 17.923245265859112 18.227626639523102 12.608038576868841
K 13.802962470606861 11.905883186799604 11.949576255620872
K 18.61329178483316 10.80246983270496 11.941392625324871
K 21.42556886043652 14.93664842392498 12.471943160208012
K 14.183271981977988 21.184905359334426 12.97271846138177
K 9.71435854332326 13.800506233118568 13.469961162237622
K 22.213115255190996 19.36461257480597 13.8010601828805
K 17.077665880253182 14.207401392305172 13.832547690819691
K 15.812892261789681 24.623049964680956 15.683036900535612
K 10.793850372064174 18.234187299692493 15.648778365496312
K 15.23953861331944 17.84109052978046 15.706402907907039
K 18.551342955733084 21.22255209302573 16.023634803728058
K 13.077658402400502 14.16619103175049 15.947330698836995
K 19.731660606242755 16.748581136458544 16.393053956951626
K 11.174518859529531 10.353417523682177 16.40263929899131
K 15.998923038201415 10.377985211756116 15.970085963218919
K 20.453532973594786 12.263307873141871 16.395382301852017
K 13.789039146939773 21.226099604919632 17.66188586717398
K 23.780801966240606 15.647276398800361 17.133014445012183
K 12.870633776608537 16.84313283423752 19.738910452594062
K 14.174822008244877 8.21896957295948 19.352656171844806
K 23.098831905701722 12.093020291481945 20.129504014109266
K 21.620323282623737 19.716218003905638 19.027363291351037
K 10.221385725456983 20.32866657478916 20.122066227541
K 17.13340052414217 18.544614853909486 19.478519083700075
K 17.504229859444912 22.912703916382902 20.138854618535206
K 9.312323816238042 14.52128660768303 18.221784379581084
K 16.565489770089066 14.196484198849603 18.306838898518194
K 18.065714414512847 10.824949886106882 20.48748365189729
K 13.053545186689707 12.325533363008125 20.32373513399848
K 23.754434854854914 16.634024629667543 21.783749101160694
K 20.049166234298745 15.105983139330423 20.673855646368715
K 13.05069415242427 24.202192778435133 20.516653864591287
K 14.518226872543787 20.154230550379815 22.563134950176046
K 19.37117011710735 18.997893529952737 23.104557699700834
K 16.03008663138816 15.312098536679322 22.715810419531724
