41
Energy = -33.76455019 eV
K 17.716070451807045 12.012031887621383 11.09782115834483
K 15.193912587367555 15.947680067763134 9.588145799426938
K 12.51146301951385 12.285942237993416 11.186259579148004
K 19.21769775375553 16.24177171189789 12.121424977812666
K 17.665938433487636 19.975891633350788 9.687236266530652
K 13.039682068582625 20.15511907716502 10.054604691415806
K 22.111108787858637 19.203351927967223 10.585730885515119
K 8.256669045378585 13.748686742849046 12.721116155043118
K 11.48222464341785 16.605991641912766 12.329788390307117
K 19.691818228617134 9.083234071279369 13.845173110806053
K 15.100351549259909 10.251102379024138 14.617128700597275
K 15.342838015713012 14.496864824231142 13.638729611902098
K 22.37130795543731 13.153484429545323 13.29197532633833
K 15.424585027758999 22.98112849782925 12.917034160701457
K 18.212669426138536 24.501409528329386 16.377240094467236
K 11.449331741179916 13.046955121102267 15.591302049917633
K 19.39062601729342 21.006948701067497 13.736955062088388
K 11.755023796330766 20.619600289995432 14.664862966427764
K 18.880936664795883 12.915037046461835 15.53983201728029
K 15.589365213726765 18.700844536747663 13.19958648009444
K 22.423353541464916 18.02565640838698 14.858277865619199
K 22.369942021308606 14.851268116629754 17.686453157174938
K 13.442943790778791 17.10296938082047 16.477301008479156
K 18.31073287004562 17.093352832726662 16.50679020400405
K 9.082536302873548 16.919181143608796 16.18768324522806
K 20.18517283942899 20.9738173797979 18.03021600833446
K 15.750111939466771 20.928550675524207 17.102404106341464
K 21.96179665870402 10.502785522580677 17.364431102088435
K 15.316420088290348 13.494325307062267 17.83580722049594
K 17.41419406339804 9.757001030953862 18.446248038463338
K 20.367907692869192 17.674959030408722 20.70705899565804
K 12.114604908879173 19.728770546866006 19.578248444626453
K 19.076206155731075 13.55505831643671 20.2327573132163
K 11.510077979866601 15.148132040427209 19.778416534019478
K 15.874416551366789 17.104002508678363 20.04666530910209
K 12.663749476201255 10.628758127108886 19.458433777603826
K 16.734141018658622 20.879767772436484 21.543878402116686
K 15.116458165724248 13.264494668749327 22.2253809574808
K 17.56513881704811 16.844713203435433 23.999202030861856
K 13.103048996710358 17.352727789541778 23.427846929615722
K 10.95435893931509 12.977565089237006 23.45548511085579
