42
Energy = -34.70745518 eV
K 12.568458733452118 20.79260667825069 1.0426635719081128
K 15.311245612749206 17.65583534525007 2.730148275184996
K 13.822060990559725 0.33572759267585073 20.97356367543886
K 10.589849349112713 20.23807716129155 20.02492900465888
K 16.886987454720554 20.730099874117283 22.89425613046364
K 19.639283456461367 17.49858227357314 1.2930830841712708
K 13.519892374629782 17.113623747606102 21.79922874993925
K 16.368561711778185 14.004585777888279 0.2456952227272986
K 12.103402194664056 -0.4033686362557385 16.74157217098588
K 8.234291018090628 19.437485446223917 16.022066349805897
K 21.10389686942816 20.525969792662508 21.266996462516264
K 18.213220042597055 0.29916033205684883 19.442034952025406
K 15.101113661860605 20.022006431531604 18.542436313012573
K 20.73079251764502 13.113107550761473 1.2122875800946726
K 11.771627801709084 16.715156564477496 17.446503874034406
K 17.834532496107 17.028668206692906 20.36616861910772
K 14.57473132013688 13.476686244457449 19.25138662155374
K 16.505844611614673 22.93667556814002 15.110000491878525
K 19.65681067936512 2.9228993118125084 16.011967090269785
K 13.278038913937818 19.518664701766102 14.139101816749221
K 22.190736092798765 16.04232043057244 21.151013053563947
K -0.016615752344269208 11.618277019336693 21.064318392090836
K 16.112899704837258 16.513330205064502 15.95013861324417
K 18.93241486764016 12.55962525171479 20.159196286868045
K 0.5526029811793353 18.962231955640416 17.812337537755788
K 20.46027462256135 15.703336020941713 16.947911500173355
K 22.539891069875093 0.021869418134032165 17.818591763397603
K 12.920527039387794 13.133119894763112 14.902870468927933
K 10.140207903377528 16.348670144257785 13.132058510946402
K 19.4109598432747 20.00975159009568 16.907049489655915
K 14.524384183692094 16.040352832506358 11.61775956280323
K 17.30503238947007 12.185776400387365 15.825976187677838
K 20.88338167799984 22.912715034527242 13.44390452450856
K 17.674637072614363 19.462319871404787 12.422470013798996
K 1.8464271810135993 14.649259897029669 17.894380118052815
K 4.20348260331243 17.77561214499972 15.160339314126944
K 21.83058406214804 11.456972308931073 16.745382296218793
K 18.938160624840293 15.085899739899038 12.570983285477757
K 15.644234897563175 11.790079316308471 11.626760094240112
K 0.2060652525177261 14.60000197645402 13.809889163251272
K 2.0348283967368235 21.834784169010202 14.562390505079774
K 22.12749997816995 18.716723022648928 13.489076826638847
