42
Energy = -34.75865442 eV
K 19.002995181041907 13.88309058429602 8.518710972872443
K 11.387818652169415 19.376291044852184 9.213318034522
K 15.302730548580588 16.49698421637956 9.810407801136847
K 14.975440087723934 12.0118728213093 10.337641471096335
K 19.546146174469055 10.267956876986759 11.363935980729634
K 22.355031709485885 13.882522544396473 11.723937945054205
K 10.969941022762649 15.03260964877237 10.872736019634548
K 19.632470728540625 17.819349258042195 10.793387969696486
K 15.585424890516986 20.846699249459615 11.071251554504247
K 8.400644673189984 18.76998303523202 12.457419919560541
K 18.21684692339776 14.02711634011052 12.723954956279265
K 11.261024201739213 22.371902732854956 12.786311867871209
K 12.560019614987752 18.36069346202379 13.227107522911263
K 14.157735863441458 14.419271972942914 13.863075535976497
K 11.346663861558516 11.25288029804265 13.698924354756198
K 16.083299729495423 10.39219851492202 14.461066477112984
K 19.40852485321952 21.00950602045889 14.453621297388105
K 16.72259529408356 17.77575966460909 14.089398433306354
K 20.53631007525848 11.722453511203906 15.690281702197757
K 20.956462282289664 16.76773185755624 15.062659867743033
K 9.97783607073152 15.360662545348625 15.584658566349981
K 10.44049838809711 19.86739288977788 16.718527783050394
K 12.66282746291737 8.483442730715254 17.167378689795413
K 20.073956649229547 12.19365956925504 20.516368477416886
K 9.167557308939946 11.502514529035574 17.910433910121135
K 18.078982050166392 23.037941320878254 18.34956340231499
K 13.344481384141861 12.68055895705847 17.559235998382142
K 22.54593146940411 15.195378904249264 18.657048563838092
K 17.696078717287186 18.71155760481678 18.19480487179216
K 17.541466273987563 14.39529121092093 17.342672034898712
K 14.795012999316146 21.540665779584984 15.468212134389216
K 13.783438875154616 17.13493640939365 17.475986645946733
K 14.079939957782623 21.223297555833337 19.7087407310329
K 16.622954562393467 9.928094192453882 18.75512805660388
K 21.689295349855414 19.668271948087288 18.891685421141467
K 11.079529419329308 15.183368376468815 20.271501961098586
K 12.191131832708928 10.584000555889366 21.16055889991641
K 23.179872764834364 14.392133771071729 22.899742184424653
K 18.322085058387568 20.696189364774867 22.063521182775276
K 15.616997549886994 13.424842868626808 21.337305604898493
K 19.392260620338735 16.39007162401881 21.61597148368727
K 14.96129145355992 17.570406223692373 21.78335629817869
