42
Energy = -34.93305376 eV
K 16.27166473332054 20.01148398853641 8.310073981073135
K 20.045945529338233 17.419626429099118 9.053271291401094
K 15.894033906807051 15.524156624422577 9.826789969118632
K 19.695226017366224 21.953350028030034 10.249491822792633
K 12.912203288334542 18.905087116842182 11.81636217706141
K 23.084426639978172 14.384412874015224 11.378548566577399
K 15.466074556671375 22.70633094145548 12.094352607826897
K 17.43459863025458 18.88289848123858 12.505153000331132
K 19.129959798963025 14.815250689116422 12.886279777134495
K 21.922063951164443 18.543097334759302 13.235061574324149
K 12.111475687246527 14.000060015644035 12.116451285308672
K 16.233061351920263 11.423357270862473 12.90872577170863
K 15.182475341498083 15.71701822635735 14.407371644682218
K 20.74925085403457 10.96507937107145 14.032017328275701
K 10.821342380034487 17.100050350095575 15.478834509120722
K 11.391939942496215 21.927640298310347 15.50835412513412
K 19.29001910751001 22.05647082888033 14.877165492474607
K 15.062015987176329 20.06522426936188 16.299022594433623
K 15.519973231277975 24.578476748106333 16.10139525125201
K 18.54947062664683 17.70888906580924 17.229015174015274
K 22.434247910332232 14.817673162902304 15.946752526787883
K 17.079888431479485 9.256325139055743 17.123104116498734
K 10.349432231023581 14.38185569695898 19.29385011116136
K 21.571399107244844 10.91320099266844 18.47162634294505
K 13.220016031894254 11.927836083400681 16.264210137961634
K 14.259270697934122 15.911749641754218 18.475472455944136
K 18.085452480070987 13.341052135046183 17.272787471058212
K 14.472787526332818 11.811746302666537 20.60213756387683
K 18.24360471439724 22.278531448906207 19.24006385650669
K 13.612555555564963 23.00612481713995 19.72654482909168
K 22.288870642286142 19.312975021236348 18.014579429877603
K 12.93230375298798 15.95649095680536 22.906614032360523
K 18.865289920675544 11.345607320418683 21.924191337492356
K 11.094967292007121 19.08088619191926 19.519688405264233
K 21.587318567119972 15.096812446079923 20.40818413719336
K 16.667733212949003 22.341094591502188 23.494038111983553
K 17.367156542002803 15.377013826998038 21.43127878173628
K 15.447269963230847 19.251929734669396 20.92841726505097
K 15.93275687789499 13.228018184813031 25.04889434978037
K 19.935622214383994 19.025103167347115 22.278684763928144
K 20.085825841075113 14.767686498183368 24.895506147166035
K 16.605327235086097 17.788643997526584 25.32595419230068
