43
Energy = -35.71726131 eV
K 15.16892221291374 15.88526176171649 9.123376084738664
K 12.904770791482461 12.847290466689074 12.14326990344852
K 19.964553029585854 16.887740787814764 10.586387694773052
K 18.21352978505633 12.47241861421971 10.96808578384113
K 16.24100197942221 20.0478441305345 11.514891551983766
K 12.089404250522938 17.425100711265138 12.469233952156943
K 17.027697568107783 24.913195001154822 12.45127967991125
K 20.739809821166112 21.886496089386725 12.47352831999736
K 16.321605352428328 15.667208244366057 13.085138633753909
K 13.195616584455962 22.679050455645726 14.317685388549707
K 23.431581624911168 17.76617126290697 13.632822401201155
K 16.342374162313604 11.415076570900117 15.21934262329263
K 9.110287790564525 14.372175205835346 15.107469371148051
K 22.910096930584626 13.25733516287432 11.3135448038704
K 19.31008503458307 18.50027487395071 14.748285441336087
K 20.763420414573527 10.199412509639565 14.35257481210029
K 17.446035591957973 22.20268581875982 15.67897515024707
K 20.354459700283254 25.349662203492084 15.55129917549989
K 14.68559896050342 18.875129959232748 15.78706799804867
K 20.69015367169422 14.33300395465315 14.733656342787553
K 15.897289304143111 25.93140587576432 16.93186871048749
K 13.15904564467661 14.827340619452576 16.09997654102175
K 17.386683121863882 15.461768494317155 17.17504762256633
K 12.087441238452778 10.636842452013276 17.060466543274444
K 10.29382157142129 18.49434703809069 16.912071581005755
K 21.821782376238385 16.62378300952014 18.4888603896688
K 19.658360232541735 12.074895556680742 18.870496645293244
K 15.881923456765008 8.862709515635558 19.285047142892246
K 17.857334594471 19.38888126662288 18.914533099681872
K 14.029441262835807 22.0938414180185 18.928442759931592
K 21.863702778188905 21.151679248820404 17.3728398392303
K 14.927383900251044 13.056948396603186 19.626850093979204
K 13.65150797039482 17.663691866546046 19.999340787556722
K 10.570981550414857 14.32538439236117 19.673741370172678
K 17.850419721470633 15.859121872634821 21.304677684631084
K 21.768529065663433 14.38159706429317 22.610061118830565
K 20.79865813810141 19.267953012674983 22.222275880612504
K 18.54832673137284 23.44192755974003 20.0115122804357
K 12.846491884299624 10.506312985068279 22.234011296801665
K 17.396936358547823 11.747465834566448 23.05092952368096
K 14.074503601906562 15.055343103366074 23.677556324241223
K 16.26927894221365 19.955761935483828 23.003196598706676
K 18.497590493335036 16.25690289336791 25.336720249290945
