43
Energy = -35.52507927 eV
K 13.966291749405503 13.160360396027372 9.252663820738904
K 15.158670533152854 17.732801404552003 9.505990139953388
K 15.89907218428971 22.1817683175012 11.614931038278256
K 19.61552790441622 19.98587780976466 9.61500429499831
K 19.209442977523718 15.125396301383113 10.569293505336729
K 10.994590177850675 15.375446479021857 11.766324576632181
K 22.322242851744335 12.587568840610011 13.507467706992829
K 17.254630387570998 11.291256417949349 12.46058425727079
K 22.08817351123199 17.676629653367776 13.095729634803169
K 17.704499412078697 18.55559052764139 13.012230422075145
K 15.256291632755614 15.015596376143666 12.861337462422458
K 11.936022984651808 22.637499062240266 15.786051360265091
K 12.741571837398366 11.46243003427917 13.704712395468647
K 20.20756894249503 22.033648392121183 13.80205644963091
K 13.17831736172904 19.07798863367566 13.537105618245654
K 19.260992976026362 14.71647358645174 15.050610483941918
K 8.598948256264354 13.547918320047845 15.497646019909544
K 9.190299881393697 18.29848627367812 15.55039656462093
K 15.8995535888992 12.784761698896139 16.727153179244024
K 19.280227792141847 9.934026883740282 16.00896940871026
K 19.71493594400415 18.86898172579257 16.85843450595601
K 16.157142920571857 21.614720994296448 16.165669207999844
K 15.869240126677429 17.15183997575072 16.59612589299118
K 12.272171671978247 15.334108260126124 16.110935871905276
K 23.335624275735523 20.816356605759392 17.276107297516965
K 15.126580922510257 8.640537419195846 16.71331610823112
K 21.676356935905137 12.16463290247746 18.65983332355002
K 22.956905677915543 16.105761742312765 17.52325389601337
K 12.458486942586978 19.234727142957862 18.54557430275566
K 12.048968459613514 11.649594201738902 18.519308472121597
K 18.745858763016997 15.303774414349903 19.331825625626937
K 19.45758210654678 22.570309000848663 19.296348683415125
K 9.676663727178871 15.712339048402264 19.48865343048323
K 16.747053018517207 19.173360702925685 20.129312653918102
K 14.27112821783806 15.254057042455509 20.372257676260958
K 14.53591099034757 22.82922093550253 20.28206695062225
K 17.302803228882055 11.50454200917805 20.597936390765103
K 21.21503545259058 18.72252249206394 21.151717511975296
K 21.409256747089177 14.305232815710497 22.59733282124782
K 13.685348416994595 19.11325167336726 23.06188635195102
K 17.461682909123585 16.318853769207944 23.485801693172906
K 18.051811893202125 21.11766656903518 23.705247935391114
K 20.97268418977062 18.224253629068773 25.51696553820701
