43
Energy = -35.6192073 eV
K 17.11460218136623 19.482188345750554 10.224365800155525
K 17.784666149524288 11.5996723283069 10.65246128575487
K 19.434478096730174 15.854702816269542 7.887879639912366
K 14.636246058068183 15.220785269281741 10.097163293415859
K 11.809251453519902 19.278161853330733 11.820307412859767
K 15.657457027485956 13.277492087973725 14.018451347924566
K 21.78744486236697 18.582695945473 10.799574413287576
K 23.127104816348137 20.958063594123434 15.077832801607869
K 22.093911358326874 13.547480127955698 10.461379106241306
K 18.804752985540123 15.627355172675827 12.037506488037895
K 11.321140341518195 15.055173307977656 13.843000806760555
K 15.257786080272933 17.644105345316497 13.675276836674987
K 12.994819921422238 10.865727038971796 12.018162310433212
K 20.21977465150584 12.000081064544517 14.770664192453468
K 22.617182652278114 16.187187920689883 14.814649192833107
K 15.501915603190717 22.030544695037204 14.03895102122456
K 19.879366391263364 22.87593071395889 12.324138915388692
K 19.312757350838833 19.377569272703283 14.31480855482798
K 16.37571652427758 9.17637419570962 15.238471338023942
K 8.31670502463953 18.281198715906378 15.047860385885947
K 18.556200001875226 15.782977480140987 16.235387235317795
K 12.191855460303374 19.60987051577638 16.230934019148368
K 12.612969288480244 11.596718504010628 16.864061635036972
K 14.198620534126734 15.633550664485103 17.26023029991893
K 16.5021487119937 19.428131271759856 17.503238712028082
K 19.08085556185262 22.813801283975877 17.16334133627867
K 16.985658796707412 12.41759109604044 18.11833075998944
K 10.151455810081325 15.804130439508869 18.486545175559915
K 14.221567332323492 22.63306310923806 19.11620193125399
K 9.913948353335204 20.27939935420993 19.943106778960665
K 21.042196291940684 18.68176657062973 18.703767168428445
K 19.832146332484626 9.420921761622305 18.759504713812635
K 21.28634587057617 13.876387165786365 19.11487436240607
K 15.384054804344485 9.270885182007055 20.106537079328884
K 13.638994947029186 18.277235360582743 20.436546236168525
K 17.507836925126455 16.17583950303197 20.289589996947633
K 13.670267967773942 13.624185711467453 21.128783718602374
K 17.588004521575744 20.458801371545118 21.653059742997737
K 18.201968855652275 12.414781537493322 22.367405550996697
K 11.031251308122469 17.075108643572214 23.463630260561597
K 12.869807103074379 21.07940822692057 23.44053869011175
K 20.54387772042769 16.70389702633298 23.071117674249557
K 15.660764369481614 16.738934807077662 24.100238177363874
