43
Energy = -35.93607567 eV
K 19.211316876191457 8.608650465176574 11.916393438674161
K 16.05510153754803 10.947413991076589 9.414437724053117
K 14.677317544634274 8.599837124244486 13.089123502309722
K 17.92988393358078 8.992857523096594 16.475393397528073
K 20.16096786451095 13.073053628968566 10.19002923402887
K 17.16752157796651 12.10838936812495 13.42700121893649
K 21.617421790217374 11.640973540581435 14.492801805393924
K 12.747285151361007 12.872198591147809 12.697394908663572
K 14.170850212766032 11.59650351190303 17.17654090629903
K 16.07518490294605 15.62241829890941 10.605017640395065
K 21.27629062943947 10.844071781250525 19.065244217956725
K 23.457140939829106 15.673548347964145 12.485724067489528
K 18.37489103646768 13.484285113503782 17.4940779876647
K 19.538686389369392 15.781506818172936 13.917371613534746
K 16.807987355083075 11.180441708557241 20.826447198656943
K 19.901641323934523 18.492888456150133 10.490311358112477
K 15.227084477361378 15.46350814559712 15.259832851956297
K 22.550170572886273 15.29683388804648 17.162283672124808
K 11.229885235444502 15.358798110279654 16.83537651047445
K 13.45769654018365 22.207498697407054 13.470830805950424
K 18.280359213574975 22.756048203871114 12.11111919474076
K 16.60779905259699 22.407569205289814 24.257751285306945
K 15.690983241872734 24.994047113678043 20.585145896153513
K 12.338911519019412 22.667666143368926 22.759747006530528
K 13.872117904283591 18.28790803987219 23.879787280937133
K 19.47396292357342 22.33381429401967 20.465229115841844
K 15.48125734943071 20.540482455199264 20.47232472921462
K 18.613588345449347 18.47873211360297 22.9817305063937
K 12.314225982377911 23.063597767961554 18.245055612687075
K 11.212607467338332 18.68525867718118 20.16634255131408
K 17.06078733211265 22.679242936279522 16.593288491355192
K 16.40200406312176 14.598436104465705 23.923262462716394
K 22.360753172628957 18.71227072120954 20.153809151504746
K 15.42166997431395 16.023241431714755 19.795958293215858
K 18.619319363214206 18.21761006403169 17.962421693705995
K 12.331158373181237 14.148976772454189 21.643632077079694
K 21.168644606817704 20.095491445935508 15.035523942582536
K 13.853617892680118 19.19831114254172 16.770856673419036
K 20.163284789462004 14.754487025716472 21.25073900305632
K 9.768189100846058 19.80328505045454 15.706461940362546
K 12.37237613761887 17.653147357540195 12.5181132509414
K 15.329493023752104 20.120363189049034 9.74238867075424
K 16.817334741543977 19.123107096936952 13.676448572516177
