43
Energy = -35.75007108 eV
K 12.47371498679169 18.76501727716926 12.15833689427289
K 8.440300422523613 18.738701088093517 15.249425770043226
K 16.529901401721137 20.77775281201987 12.123245832799421
K 16.161653430313557 16.194325465295627 12.686828428682622
K 12.000608419007609 21.675948624165194 15.446977510064894
K 12.481442448020985 15.663806237040111 15.432172669571422
K 8.24178720894309 15.318417702239202 18.068995187473654
K 20.930482874854437 22.44948242558877 11.950460878363065
K 20.43936096974971 18.022458041251205 12.310969807082033
K 19.66571306630201 13.569448669277431 12.165811869991524
K 16.01103512566986 0.2209612144536403 15.433076148039012
K 16.35258661956451 12.703158966785 15.823797738454065
K 15.524299335668482 18.997033673358676 16.192379814578466
K 11.575625506205686 18.461638225067688 18.745996454684725
K 12.379383597379972 12.37355473898444 18.36681230176987
K 0.7374791907089847 20.18348093240994 14.122289515361947
K -7.888912273280797E-4 15.092935780325163 13.978169041443364
K 20.219679992220133 1.826846920829026 15.279872036768559
K 20.924213928052072 11.436217854279947 15.787119475959402
K 14.517451852027 22.035596320143153 19.446124596064504
K 19.538698885644898 20.7322847307556 15.839453003019457
K 3.9075009038648685 16.652592262220523 15.819828620525112
K 19.347986997537667 16.00307363231484 16.35185879318406
K 22.99702367313614 18.071379639141757 17.653383982908498
K 14.425093327738042 18.646740721128566 22.426138875050707
K 15.526391165920415 15.823805397497317 19.15397296556967
K 18.47362690171136 0.5675316589868632 19.316520139764727
K 11.401897235936309 15.087781157468894 21.707207088141235
K 18.764483823144193 19.409693557139796 20.177132990076085
K 22.80275408946479 22.78094694753174 18.17856740538874
K 15.10458560746519 12.374638278166913 22.028162685394022
K 0.30878257488591254 13.624087692235683 18.22207930999116
K 19.166997143027256 12.940260609489611 19.737452765841063
K 3.008645318520052 16.57761196475543 20.24517698704009
K 3.3957909986680614 20.547923955341975 17.980969412780286
K 21.91860995835922 16.144796227806335 21.550623366871275
K 16.906973235287328 22.38724225509378 23.368683504443716
K 16.24028410253341 18.80425440867488 2.968301575197212
K 0.3810862668273865 20.176016202794557 21.67545921051119
K 13.95775792012975 15.075659455551026 2.0135275300943327
K 21.311754193345337 0.02619795018422865 22.773300084728294
K 17.857861621633674 15.802876370707523 23.323759148597567
K 20.266494622404085 19.48605605362614 0.9454000306887914
