43
Energy = -35.69542012 eV
K 15.989977045056536 19.86459462359502 11.933340373695987
K 15.451120156468406 16.577003357674798 8.606865580332183
K 19.317011270066658 13.687569792757369 8.813903348732074
K 19.84433764970554 18.338541040206096 9.889176324321465
K 10.631380364603007 15.145735226374557 9.707671216946263
K 11.208789104906993 19.782292494937977 11.017939252754912
K 14.84290774910334 12.219014649534252 10.477308983264365
K 18.869431693392187 22.755272501746628 13.720176340863208
K 16.143597475667473 17.46794783176245 15.772346748268646
K 17.674365707621472 15.45921261469702 12.284724366298741
K 22.0131257166935 14.67082717707026 12.747706050363504
K 13.37081721779985 16.104003998221337 12.616659377636045
K 13.702614991819761 23.332528129490964 13.916878484208135
K 18.851687722100543 10.990578433189715 12.928103073635532
K 9.007645603325585 16.743179154624173 13.951158442950515
K 10.960347932352885 12.224626202309198 13.713070941133697
K 9.046135060732375 21.813276661089397 14.474768221873191
K 20.23004031460473 18.642105422925255 14.528244616924605
K 14.585120601492893 8.805324099187064 14.025344214086937
K 12.552201784973882 19.47933529566192 15.36559611740378
K 15.26175792582788 12.871166955935928 14.915966217019514
K 19.22227231732445 14.242113641143959 16.221372808294195
K 12.216197889139963 15.352639635490855 16.86850883809137
K 17.623974562790313 10.125722945299003 17.676261317542334
K 22.359075377301856 11.54557590427993 17.208211573060616
K 12.674896830176916 10.82489131337249 18.060212196139027
K 8.612460356575037 13.386295883982763 17.86327074216735
K 22.78126855261669 16.4299941125285 17.736381674195897
K 16.40164649522516 21.6461184242375 17.290828943793215
K 15.71063768595636 14.251572557778948 19.025872309404367
K 9.366767582735216 18.369250769619864 18.410113997133525
K 11.87929766360244 22.541437160865975 18.32471005587029
K 18.555347503759403 17.705434827775363 19.018032847615864
K 20.932769543430567 21.24610804994006 18.26626299088131
K 20.92656776235841 9.701506205831263 21.127907672729112
K 13.924008359548521 18.57785890037766 19.847824390253678
K 19.72592083531125 13.746159350321513 20.719487188976082
K 11.911024218693354 14.408288308789771 21.258528922056247
K 23.981542575070975 13.325828805517045 21.20478732562656
K 16.053776743479613 11.158275780942366 21.98756819913523
K 21.629214609489953 17.715357971413056 22.020207923246907
K 17.706065872799265 20.785172105814304 21.848181362373616
K 16.566791670658944 16.256199778046042 22.924456525058957
