43
Energy = -33.40838368 eV
K 22.43784635583176 12.51709765609568 9.678957825872223
K 17.963993326665058 12.257864547611666 9.656699423650807
K 19.97029342866997 16.433959022961808 10.498439367050244
K 12.825306952443984 12.84270866015376 11.275156165567012
K 12.74307521836937 20.604687074759354 11.057405973554514
K 23.645849542773846 16.04147735816185 13.236850525430004
K 10.201899477405561 16.660295410937525 10.073465606479063
K 14.910343358411394 16.594194576714894 9.272102780726607
K 20.304456654167915 8.868942387577503 11.659063416946438
K 16.842582792591454 23.250130680337428 14.013507232187575
K 9.323256474714771 19.0355375707637 13.979293001620277
K 19.820021314260586 16.718527980217168 14.98855212561184
K 21.192605529841803 20.352687291324244 13.225572725484477
K 16.862939893668866 19.23159725851493 12.494153922071435
K 20.640923988443312 12.637504049019999 13.498422905453264
K 16.3103542425062 10.279787369037619 13.701029596571217
K 12.91334719208474 16.944866988512103 13.226494981779297
K 9.546841903283813 14.21033612680362 14.24664985150551
K 11.51805428428075 9.850920346718858 14.954855662174714
K 13.32139472518871 20.758750041830734 15.620334034158533
K 16.65637284470564 14.726784965161558 12.793531031871467
K 13.61931978055128 13.374822903314591 15.624040826767793
K 15.836679770302599 17.21508676279591 16.302711144559083
K 17.857726381800422 13.255192290209385 16.766691558077913
K 18.662664117893165 20.50595634389101 17.083435441210572
K 11.416013013212243 16.89544602228181 17.494624107763375
K 19.763526665471073 9.46629778027972 16.68173544226182
K 22.91453381378853 18.42906665948147 17.229606608843106
K 22.072974207306608 13.805437433862709 17.626667209527543
K 15.1049486089086 10.009710002916416 18.304835729473
K 10.98901501246095 12.407782089051217 18.90362837017344
K 15.616563260886396 23.196967873464867 18.51695777060456
K 11.226488421310867 20.84381606073361 20.054042419026114
K 14.908514487308494 14.479606331890698 19.52731436003683
K 19.059619690710242 16.72487123569018 19.566361074729866
K 14.899612236611285 18.967284441708337 19.95767044164126
K 18.486538941801147 12.171367200469094 20.868590879471267
K 17.97542495158637 20.791041160424285 21.976138016414243
K 11.783443932963399 15.995729246915761 21.947959564505634
K 16.38518092521537 16.030834776219375 23.241425598967112
K 13.999388569896047 23.365207121272512 22.508491318665573
K 14.109492226430202 11.82404448838 22.66526125659102
K 13.423053159971687 19.48825608822735 24.063754381618644
