44
Energy = -36.37296327 eV
K 17.226857635550676 16.847494201151296 8.571608362738226
K 17.86536399441298 12.919486000341909 10.567534784660056
K 21.51060663090874 15.558795280903269 9.871198721879761
K 13.374915274307275 13.744507031239099 10.64467650317328
K 19.84518809582126 19.0978341129313 11.715129206877073
K 13.183877905095981 18.25482271526539 9.68205118776727
K 15.05277205674045 9.466347569129567 11.857779457436164
K 15.859391486178822 16.999318494451998 12.714082425408122
K 24.2571411139372 19.113115062183294 11.915480770157476
K 19.560380315814765 15.072400422355948 14.260787227857826
K 12.327943472802922 23.58646401554881 15.6987412310515
K 19.36902719728076 10.627227469907515 14.116339292827437
K 11.096083985742892 20.33361771189152 12.951438475253374
K 23.97879541281397 14.79709890214999 13.192374115617937
K 15.537474750593729 12.818032498551586 14.26780886121326
K 15.702653954935593 21.55324473016837 12.63194456137127
K 22.74035960531145 18.086466282635584 15.972854133918892
K 11.352374075314534 11.288729130519622 14.420893831080571
K 11.867042919671613 15.870881853741642 14.571830592280037
K 18.32500683826982 19.353646369826482 15.720308070235278
K 21.45326734950876 22.10268351872488 14.48369277591386
K 13.908005494047599 19.667576052205114 16.101333597442167
K 17.924969983689408 12.181923647635378 18.05883729079184
K 15.92896356362792 16.014645222716045 16.916859649775002
K 16.736459066466818 23.050404972895596 17.10457926130831
K 13.307250090234092 12.902613392733002 17.99814941602491
K 14.892497282776958 9.081421033763236 16.534173176576285
K 9.059997762081203 14.18075339915549 18.155531665663325
K 10.55497173763102 10.030167968331716 19.30435670512833
K 9.471559269273387 19.2079084219191 16.98668408407022
K 22.36226809021386 13.385666629641005 17.350930857063254
K 19.61584297474939 16.451634858850824 18.694668831475223
K 12.472762537484732 16.99855104539803 19.196368367615555
K 15.000980870640795 10.429402966703064 21.13774584864729
K 20.34654414534013 13.421389854746383 21.679774308288355
K 23.34437537073112 16.989034424944418 20.52368651267486
K 20.68538810763558 20.76591179165464 19.15522555363658
K 16.353111225078028 19.400343120483004 19.89221741477406
K 16.020373877487703 14.888921437318908 21.28908075674521
K 12.377848459147803 21.4279484570271 19.869093401645834
K 11.451164377354917 13.690901972462111 21.94448152369325
K 8.859626680048658 17.50326168558578 21.384120598620047
K 19.341229261418995 17.840422332584044 22.811425147676633
K 13.586099466208758 18.085795702009296 23.170935206327847
