44
Energy = -36.5994877 eV
K 17.631558600421876 15.071353404410411 11.707110475812625
K 13.567209450820812 13.382276596952952 12.781397603339197
K 13.963251692711458 17.13711843759623 10.079631197333539
K 21.40140227477509 22.451598319744402 11.139569327302816
K 21.265786056301216 17.85092255317367 11.774877601037606
K 17.167829215540873 23.97547438901882 12.415993169516325
K 17.362310633434728 19.660699326239047 11.64812573764767
K 12.934548305334353 20.989749470137774 12.77490936859452
K 17.644178386161574 10.68999107412464 13.780053495760361
K 10.723793152834842 19.246491698591612 16.445582418008794
K 16.413227485737718 13.859838627528427 16.136446439627147
K 10.47490071601431 16.8454808120501 12.853964909286521
K 21.209508669574642 13.97431676711024 14.559737328249588
K 20.858352314052954 25.61975352225117 14.350634563979288
K 14.519857452549742 17.40413031877339 14.466730245451016
K 13.291730611116236 10.47334366051599 16.46484651823856
K 16.902961853265097 25.529497742349832 16.49083720304698
K 20.402631811074233 21.308838858388643 15.028971849944726
K 23.70390761649856 18.170547426829696 15.459314232110906
K 24.27815889076732 22.81570041813124 15.3221548664501
K 16.27466355684716 21.22220131439646 15.831895873480505
K 18.851177688644974 17.364978917208692 15.587427389015659
K 12.753143005496936 23.208292596300545 16.974723974262396
K 18.990205140855654 19.777760907119287 19.130963663371723
K 17.048752860937128 8.466041716508414 17.82711008496393
K 19.786363171725693 11.859605111612968 18.20708910287806
K 20.606691688609786 23.912121253421446 18.507800499715163
K 21.970486502099146 15.85027485606394 18.715112685828952
K 23.18894819790465 20.219101912944723 19.40625587046537
K 17.637275322816837 15.722831506932806 19.842532132050007
K 13.72625602483082 8.180297928904874 20.61662445211925
K 21.04832978786089 13.07692666268776 22.170377595327057
K 12.187995606334644 14.935861440440249 17.295072171560484
K 16.06191314655834 22.818329487208985 20.250420545990075
K 14.289059023231223 18.7552539594901 18.93410662603507
K 15.290232914560285 12.212093956097135 19.92625873534201
K 17.83566703237557 9.74606412486637 22.217063784303626
K 19.875893328479457 22.022868826512063 22.66930393168404
K 16.38087011227615 18.972820226540254 22.963350902158652
K 13.779437194694903 11.28154502656124 23.861019569101064
K 20.64394719319986 17.516475937763012 22.66559783777103
K 17.180829841272043 14.407776211723483 23.88630419255355
K 13.179865806970113 15.60181972127643 21.76232526772909
K 10.945005259189376 11.661647570258802 20.320489158313265
