44
Energy = -36.45053613 eV
K 12.911842600049253 18.14117123341081 8.353064443125254
K 13.733213215965494 13.617624382424822 8.91681278664515
K 17.599485640508703 16.197658634231654 8.624268603761037
K 12.552852179252291 22.86009317444647 9.70309000212053
K 8.965275092528433 19.83229059413075 9.969067559922893
K 16.551748051438107 20.319545231042497 10.630568947636895
K 10.438678454585313 15.759720824814854 11.328489565830523
K 22.882035377403017 17.993498510558133 15.23982137056011
K 14.897928631164287 16.29928271185037 11.894043612838772
K 17.558955217647604 12.80577606627127 11.716433162773606
K 15.996950945098359 9.64280645119636 14.968046484533051
K 22.255330849500808 14.091023317573267 12.616996299208392
K 12.307332168978151 19.90689598207631 12.521970551041653
K 13.046241361275994 12.389407137052892 13.429819523651073
K 19.210224808533575 17.111289477344584 12.763459337333499
K 19.913849176930004 11.801835817125298 15.457362130405777
K 8.528799001585725 18.411424373435658 14.393723535771441
K 15.260359194076763 23.31830621837926 13.742695942859202
K 19.54921218845691 21.490931093483344 14.195635734491134
K 15.919973262281484 19.184148798166134 14.941792563914113
K 12.486818865415735 16.58793377946151 15.386780243276098
K 9.46386418062846 13.614368414316711 15.932561611737066
K 19.22116434108562 17.79673637844733 17.330094754562403
K 23.558396452988298 13.812223111004188 17.03025262692981
K 12.218088941680765 20.897939104888533 16.820323809750903
K 16.555981979054668 14.53244498038427 15.946720161252054
K 21.51975927897684 21.36904708817022 18.424520925775475
K 17.105826694979907 22.013614815711914 17.996551738910068
K 12.284656782808488 10.085752155377792 17.435897731529046
K 10.010591049973963 17.202807344735586 18.883904071404725
K 21.584175560019506 10.049555387615676 19.232497742116045
K 13.315212640639862 14.015033244573525 18.6344162631931
K 22.94328452190102 17.359509689543867 20.031284369536483
K 16.838053987835806 11.08896586840458 19.017501321913464
K 19.96484820129713 14.186339440795226 19.428743843846583
K 9.498053077870951 12.877382496849474 20.406158322412367
K 14.81164472009616 18.11491274386465 19.291988215200362
K 18.7155068597025 19.081361940283106 21.397058664797335
K 23.718734847992128 13.115053180443809 21.55212919847659
K 16.552390332876175 14.96071237119695 21.82770764271869
K 13.494126224622303 11.53216898424608 22.024187340563273
K 12.285337372951465 15.967149478029832 22.502915987421368
K 19.487470693022722 11.468892885545966 22.914547757803835
K 20.839000147484846 15.648640260258812 23.697368669613635
