44
Energy = -36.71067127 eV
K 21.66014772556251 16.341283814570772 11.006242985538965
K 13.731588242676036 18.822652797773685 10.987820894216327
K 18.61417376947949 20.0070904859912 11.751425606854973
K 17.056252583752933 15.340538106332524 11.074406737547692
K 23.102409600549706 19.60308920277488 14.419413175677558
K 17.827665528981917 25.13909189853809 11.711525619503288
K 15.290038533391208 11.132552368923308 12.572575214323136
K 20.097561476926632 12.527585920424848 13.242892492259337
K 15.108664190207604 22.315131220116417 13.701035177909914
K 12.591133796411686 14.854644334661218 13.623776629883514
K 19.727671588476657 16.689318816973277 14.811121765004033
K 14.454143612985007 26.8936218276472 14.07659902951573
K 15.59730743870602 17.94070134012254 14.78891969720317
K 23.887654574659717 15.222955817882092 15.371481613470205
K 18.82035948732555 20.60659906021803 16.3303235002851
K 11.432694646433326 19.39378239825207 15.187018675162081
K 16.53327335134736 14.027783362219703 15.663292996922273
K 20.918398532415463 23.58338492131204 14.078922031717289
K 21.31118463813551 17.807228504739555 18.64498154521469
K 12.19631224013488 23.91912623464645 16.761965453502146
K 17.076826851494683 24.655743318364575 17.079528642021167
K 17.83491670572989 9.861966499503486 16.464752687041752
K 25.765949888085153 18.621671907328 18.236123658280228
K 14.851174661651301 20.56928880540461 18.063889368213417
K 22.71254329861848 22.04597626727601 18.287456759609736
K 12.989814389535235 16.005843269549025 18.29049503642069
K 13.305359247220876 11.373100556448565 17.038017586378626
K 20.541597315947946 13.342062287380852 17.829774886488956
K 10.976605416036163 20.522349577392845 19.762675675712416
K 20.041723593468713 9.999020029226914 20.853951475379482
K 14.387935385656865 23.941782189181577 20.837099276957122
K 15.583318681279234 8.72434918763598 20.465303383052376
K 16.630133460369823 12.9481454548142 19.854455047251864
K 17.23402065153634 17.184154106073787 19.42260306557377
K 24.22811964371833 14.824950563805801 20.140820552896137
K 18.644989632795273 21.58985969320721 20.749092051483874
K 23.125559483859845 18.99859541423858 22.302772882116926
K 11.363943702410706 16.6839362681463 22.397359157613153
K 14.669971028779058 19.736170151611315 22.468409099789273
K 20.13277123117523 14.731909304231754 22.315619764480108
K 12.663615502392979 12.254506965208328 21.64904957760399
K 16.714410106576956 11.072660634090191 23.947288532164464
K 15.563325822676434 15.472944088473273 23.525394883074767
K 18.944764422756684 18.612876709619147 24.154351791016502
