44
Energy = -36.39830858 eV
K 17.019023819283994 16.745183733207543 11.936491980642764
K 14.638499864624478 13.21172219124633 10.748463532604259
K 21.385759318379076 18.341500685148688 11.617786134790553
K 17.203608165987177 21.3653598567088 11.229081941977233
K 12.947413520647869 18.46335515742548 10.570123104939665
K 10.461245904712793 14.413931510550198 10.587771215110504
K 21.135913206519408 22.76825968598301 13.306084726264334
K 23.80927263393688 14.340670640687788 12.560358381030621
K 19.67880581604021 13.186713309046405 11.247029920157297
K 11.886398479698753 11.423205468018256 14.503277152393515
K 13.069961322870277 22.95830127379241 12.297130032747015
K 16.41567416644194 16.371365378394625 16.24936819746071
K 23.141684141987277 19.31699750220393 15.786561858746765
K 12.64314514585871 15.63286402882918 14.089902765837154
K 16.751754004314282 12.322612181004029 14.5197389276791
K 10.27420752915388 19.471402565712342 14.16446707802069
K 18.933140808170982 19.633401852784424 14.929664042069259
K 20.46357574517127 15.478380589600013 14.977213635619025
K 16.86668882795637 23.56694725539558 15.389662214796047
K 14.564692858860157 19.727152560517016 14.39497942493235
K 8.082466332243472 15.546739514506166 13.859639826552336
K 21.493432620994067 11.471987373522726 16.009045385985317
K 24.59930429304608 15.323111667699237 16.777654387915685
K 9.75306892151426 14.059173380496981 17.578909163805267
K 12.7507576822718 22.481703252419607 17.30004074258714
K 12.336901801468258 17.845162670578464 17.978176599110743
K 13.93554005620213 13.36599893061854 17.906631307642453
K 18.39115210190596 13.251253396280692 18.57152454228948
K 16.36011268637344 20.172828887642765 18.38287279370414
K 20.089284795016717 17.44694245134182 18.843730216388863
K 20.405987815431157 22.042772560548748 18.37775732190358
K 15.986257656874342 9.491234637786015 18.23102190324241
K 22.452135179667806 13.705498451887289 20.036493215571213
K 11.687669121401843 10.345602244775426 19.640357056872965
K 15.875855340443373 16.37649947938962 20.503220489433716
K 24.054206485117945 18.118422454620944 20.15466345119623
K 16.29721207559573 23.922074664679332 20.19299345903679
K 19.721847537315075 10.109708443904644 20.95118822424641
K 11.92181393501228 14.892054364077877 21.59789729564647
K 13.693807173737383 19.999279333648456 21.830056855508225
K 18.307022001925233 19.64460001933351 22.353241687580745
K 15.558815925956548 12.034565958827244 21.96305615615289
K 19.24188380045511 14.811974925668004 22.814025398086706
K 15.320629528648887 16.409113658724877 24.648276400957126
