44
Energy = -36.35021981 eV
K 23.68161592374109 16.860129560476192 9.713910444867393
K 13.901987618102208 18.944055194856425 11.205028129835078
K 14.723056618566714 15.002701097217896 8.977870197949752
K 19.054245999875338 16.743222801634396 9.170736533311265
K 21.06908760280375 18.866967213618857 12.501362180450547
K 11.467975394452754 15.114479233902363 12.188122338201998
K 10.025460115549702 19.58809205038853 13.530941794954813
K 17.564872124450094 20.949166669808523 10.587295970754965
K 14.22900047935247 11.419668449889366 12.029503379091365
K 21.33356592233889 14.13910459743492 12.143668294308245
K 18.06820363638428 12.350520984911515 10.0010970282255
K 14.16285039022487 21.97218084299807 15.334127208474737
K 13.382701811804704 17.570683906611208 15.296282024088228
K 14.370748549129571 9.178731316608 16.277546031356056
K 17.932599887274975 11.846520727948075 14.977343916506669
K 16.65596238744996 15.500885211625375 12.84969184051733
K 13.431638120848083 13.289384045647221 15.756975857529426
K 24.384866894584185 16.518320321304223 14.404122954384533
K 20.300463834797558 15.891362040288165 15.83698008232892
K 19.069797730938035 22.984193405659127 14.15297651731991
K 10.211161097383158 11.122775292961288 14.350109179686305
K 17.490623087050484 19.144392049731056 15.109723041005736
K 9.365556165340406 15.587391335456537 16.237899470088195
K 21.81270088873814 20.049824285101742 16.712068087822214
K 16.523032172118292 15.263369532546095 17.50602398000683
K 10.632198649938436 19.717259842846843 18.173626945996723
K 22.22671812082134 12.126480101217721 16.560364510471807
K 23.106638677548652 16.377010801175167 19.265073993189887
K 18.083632408695557 22.288523909403686 18.597118614240486
K 18.702632145536647 9.244563062831595 18.493155115895643
K 10.473496184060629 11.999435638495711 18.967714804725848
K 15.045259352875457 19.205479683839812 18.91375894287165
K 12.58417198146355 15.696036003082234 19.310464670532358
K 19.041246649835724 17.922526140838904 19.49061892305397
K 15.109071283275163 11.808353586297716 19.934224972294757
K 19.57672201804567 13.376895058436636 20.073169892999257
K 8.580539626954874 16.038202806756324 20.74402674699637
K 13.64847576900173 22.95117833422783 20.118268999012006
K 21.82075287958275 20.441817504932622 21.22450729344924
K 16.05782919055729 15.831937450909232 22.165620811488896
K 12.401718168854204 18.685144188173116 22.475662491967874
K 17.12899860285484 20.175525468621174 22.71633593045326
K 20.32978312117263 16.6593292902662 23.384076377517705
K 11.888958410647412 14.20879665404456 23.193421174797248
