44
Energy = -35.15355648 eV
K 17.934772637143606 14.976816727364572 3.1407845966618892
K 16.19957644946489 18.422084655710616 0.9644846696315776
K 20.520070870485974 17.96959853549569 1.2379903415300038
K 15.392958323362643 21.789525557011473 22.660800492755552
K 15.251548764684516 14.23111657575589 24.018178150227648
K 18.80663551859561 22.091668797739146 1.277146745034911
K 19.5091252537227 14.349673271687912 23.413814313904375
K 14.34470291970972 17.678803145087773 21.540550606300812
K 12.497969606261595 21.18321112990878 19.61793135318495
K 22.5372569514588 21.157450956101567 23.272759066753395
K 18.59726455961713 18.943699920074298 21.593410946884205
K 12.874489592675161 13.459361365514095 20.64109739470673
K 17.098598436607578 21.81815047743488 18.22329601856287
K 10.855921504603797 17.001443872225174 19.242538522094975
K 16.990958264819746 14.543484275146858 19.699172840924195
K 19.188943950305053 23.730005212860114 21.60647325942245
K 22.50798745726426 16.878246207649628 21.810945009747073
K 10.291835467135122 19.415461599748657 15.800398029604892
K 13.452484822413036 22.283521305298706 15.570960080546353
K 14.727961609911347 18.233932039778235 17.24996179991615
K 0.955422514875627 23.265311950780788 20.803764220649093
K 18.192396596107862 1.7727599265856402 18.005719765871195
K 22.24149786470018 1.136829304815125 18.91061756521593
K 4.072834420820842 21.54986125369017 18.240303102147205
K 21.59993833115688 20.64706244210994 18.973450409101456
K 14.44572152924504 12.161655038317045 16.81554920689698
K 18.97782564969695 17.515658278243528 17.466765797874245
K 16.830598236150088 0.28451879246828055 14.317090352226048
K 12.057342177338493 15.375875591985332 15.198135758668858
K 20.70279081162719 23.487279888604434 15.244474983895376
K 21.198345953094496 12.997935551580294 19.83080641837734
K 1.4088247959406037 18.947232599213258 20.322094427337635
K 13.631278918163765 18.691056612221928 12.919449785430348
K 17.751003583842838 20.019847838086815 13.952437674610088
K 23.106312793382028 16.22310810604878 17.685012301758697
K 18.609334550190503 12.249919317269182 16.253902471888377
K 0.3015851401038138 22.567368873502843 16.377904864968727
K 16.27918303675866 15.523140486037676 14.231855108175425
K 22.06526849084049 19.423194047526938 14.561491498149959
K 14.898374766957483 22.367471533901067 11.389957071780602
K 20.439457185031568 15.484442520244228 13.783142699812803
K 1.9609527462511425 18.633413955400336 15.894736091888888
K 22.8519397245878 12.169292951915894 15.887162648704017
K 0.2773927706958175 15.509181298761133 13.696930897413447
