45
Energy = -36.99223744 eV
K 11.5249448606168 20.707378606851645 21.604663281781793
K 21.480055591665536 17.58921468282947 20.628553444217573
K 14.037281364027061 16.595180659568012 16.717464880699243
K 10.630349649740545 15.53023529940581 14.203585147990633
K 11.303402802335373 22.905371621601777 17.2982745078535
K 17.815729051424224 17.094159296076704 18.80795051926365
K 18.986452526983246 21.505805376236253 18.21012861535066
K 14.627149457684874 20.542467451202718 18.58289184161517
K 13.17529797627807 8.453285055074897 14.509683446119956
K 19.66150773485796 22.004664182575983 13.283823053824769
K 13.812164524907269 12.539896562692848 15.498892704985717
K 15.513562833646287 13.391048591987438 19.280135455070557
K 19.21511581498772 13.559639224625816 10.676611823742165
K 23.219974488730188 19.644479441150594 11.714364783867733
K 17.680742966688353 14.990944345565131 22.69849761717936
K 22.793222771247184 15.185594912662742 12.926601036214452
K 15.716985561149718 20.343499829909792 10.999916255071717
K 11.043397445512802 14.170055939719989 18.670435314980697
K 16.499857083133254 10.81308307080558 12.592843544155746
K 12.689290095512966 9.885297642857612 19.118053993874696
K 12.648090303991946 12.642261645548682 22.76003840613729
K 9.483820941467162 16.093074797229654 22.238126431499435
K 23.06804899652545 14.670721063765422 17.378267255936755
K 18.216104638053636 14.45375536551066 15.383718363426071
K 10.320094719123757 18.501002486160132 17.986736546933596
K 19.81234258739341 12.700848496088119 19.435237367777297
K 16.91183019100706 19.140203906252886 15.088295605130245
K 19.363118622499815 17.711243256564117 11.950578466223416
K 16.450893354383687 10.290914836635753 21.942539028734586
K 15.201462208587989 15.609035489538188 12.473018739636546
K 15.407189632336669 23.226344052461453 15.051251005910547
K 17.02885848349611 9.88702434185141 17.06211328780664
K 15.05136757822801 13.148608998471026 8.798703028747877
K 19.864644230671946 20.73453001284818 8.833490510575597
K 11.913768628486674 12.030060329833333 11.769790610248428
K 17.27879729098513 19.663739829507335 22.162013094744697
K 20.95165292572012 11.336380981708878 14.859502440460414
K 12.387964152503647 16.94967448617538 9.748330005258737
K 17.105343165525106 17.03743232353997 8.229297780153702
K 21.3906450250828 18.457135749284575 15.9587914959546
K 21.84042500248272 16.73020918005027 8.566473409723674
K 12.443258324987054 19.757411983835283 14.08014047420897
K 9.626047346228686 11.102845146745002 15.9071449569566
K 13.737031927853618 16.944719166054117 21.21032675751574
K 8.735425572391911 11.394230732082713 20.76741411358245
