45
Energy = -37.41666561 eV
K 12.471246655714323 9.911272213095152 18.711519291902373
K 24.211788802744433 11.017057652820856 18.859119788394146
K 16.65639271108406 11.080761681561427 19.857690481188932
K 14.44121587232164 22.89845212878213 16.053834011244476
K 8.419781055412386 19.639523029885396 12.519132903775876
K 20.07066855157684 9.528777560526215 16.950050587885205
K 20.7560035330178 10.106504281214791 21.539112119316744
K 15.074717651834208 17.584901716701452 21.973960556052226
K 20.520724325004625 17.627338831051812 20.942569136509054
K 13.55882736837044 21.823569048593143 20.61477036567559
K 17.277474959966938 24.45165396879934 19.450412756886134
K 18.763581513023603 14.96026372108057 14.300430449897673
K 10.625907958379287 17.2473642434351 20.544073924824577
K 24.20407261400644 15.719611822451657 17.98036661016961
K 17.024560883717992 15.78452485219942 18.35073074527879
K 19.06861477425493 22.725753078692293 15.384604014846756
K 9.953096868868956 21.256900467359984 16.681143940036282
K 15.894395805578945 11.400560739881477 15.580813916954721
K 19.68714744082221 14.991901298590319 10.026786994809623
K 21.25732030210075 21.973655798257433 19.48830567733971
K 17.30281845265353 20.14716071681719 18.731007494885308
K 19.118320805536182 10.98796582665929 12.454205573476012
K 18.687079051130958 18.72922487318833 7.718725904790133
K 13.239637624707317 13.22197530585751 22.267111947355485
K 19.93404089272409 19.44673794904008 11.890418355984071
K 15.97217016618577 22.00343830134937 11.547414966706096
K 15.048018969624566 12.827834054277641 11.123511558639217
K 11.314031901734497 12.127254059266116 14.668305846636692
K 13.387432924122221 18.654602520267915 17.57693103368038
K 13.18359025515393 14.25520498003484 18.25886002445813
K 17.960601783958417 21.28154144776734 22.777608990199848
K 16.79082074775031 18.928820046431728 14.666119868659989
K 9.734384220082665 16.511618712408605 15.779986727141864
K 18.208413099897157 14.12099544207633 22.696547622970062
K 20.485334048157203 13.563282607304606 18.490237438460568
K 15.612206477623443 17.268042023700517 10.464342391936004
K 23.06508901401712 16.48142358827596 13.018183577324178
K 9.18081891766791 13.002536719930662 19.05436278582055
K 11.340059788849706 23.50096005560101 12.830529522742868
K 12.624783929564511 19.44780195817317 13.232140655966914
K 23.105928504852677 13.949054311125288 22.159649272433445
K 20.895921527025738 18.36287897886115 16.495081516496683
K 14.277360946616865 15.448368951424234 14.382789552705809
K 11.00659702559665 15.683306601870735 11.377791777156189
K 22.745222165000122 12.475844721343323 14.686930208419055
