45
Energy = -37.02152367 eV
K 22.996109288722113 13.609654655684507 21.755225514597257
K 26.930444011909472 17.929116384616485 16.45233450255571
K 8.49947617311086 15.871542943926137 12.280122548876927
K 20.810739976808783 20.69552057488234 20.10617581023844
K 17.14616356924259 17.986536954194985 21.60765979816255
K 17.787356584607522 22.96880747979582 14.826082948270235
K 25.017436347854517 16.577740225267437 24.687057703919155
K 20.376480632794788 12.023781092589441 13.160567274006485
K 15.420722670206823 10.916349042760292 19.783505046960034
K 13.336091123336107 19.953569124992626 22.533819092551017
K 12.523407548036248 17.44377558464129 11.459002208566526
K 14.792778937137994 16.273007042566004 14.893372061694787
K 14.640167911094336 24.524723050591945 21.74709248296329
K 22.859603440046016 18.690088936908293 16.706741171115187
K 18.776299250712857 24.787975063726787 19.4251736132859
K 13.634862026471783 15.040366403432907 21.901740616854457
K 8.206311718513627 14.573477662261675 16.477719799397317
K 12.299232654639454 13.662041704388749 17.838734083059116
K 16.074060791372123 11.826329126926295 15.304946968619289
K 16.104842347475405 21.579575075455995 19.2315397001525
K 19.975095244669873 11.938585225097391 18.126112765501677
K 13.955412484172529 20.85162399003664 14.942728108084827
K 11.552532724585175 21.77848501597854 18.771242120112625
K 13.759035261988444 18.06807347146739 18.597964563199035
K 23.69990943546158 21.052706138322023 23.307608705498193
K 23.723939147839573 14.204616422550647 17.156761845725953
K 16.34010788289992 14.138598562921914 11.517484327703112
K 19.559745085605165 15.543597726523085 14.952800588229849
K 25.338113329605864 21.67478877611708 19.104166149023676
K 20.908343459940966 17.599322474147414 23.69576982524146
K 24.82443417280069 17.60031859645454 20.52029844906659
K 18.145889297997503 21.885392516394973 23.30596762511011
K 20.26611581460199 15.9284839840735 10.552756493091444
K 14.569668528367535 25.049380066336248 17.20670290083573
K 9.78284594379208 17.33576053464346 19.948710341567065
K 18.440436453034636 13.698204131287387 22.256578411264478
K 16.62702817921298 14.82568626598814 18.449915826111894
K 23.838310720645236 16.119167896920207 13.214959004350684
K 11.869050346953584 13.348911474067897 13.500093745774787
K 10.487911760140156 18.07472727096677 15.55990701922868
K 18.211221620369468 19.0695117305099 16.756152597781153
K 21.094265041644185 19.840524781929904 13.015219758904816
K 20.598926773600063 16.25006413130113 19.390739173217707
K 21.84573490367147 22.938805054637495 16.490691330546134
K 16.96382274147319 18.861168990885197 12.090538738151592
