45
Energy = -37.02244137 eV
K 20.070556983399214 25.08873098113147 19.3148325203279
K 17.526223848309233 14.367225102025788 14.924740643449274
K 17.166077013725385 17.987371953718803 18.45128795488645
K 21.477412469541584 11.832840253439533 10.973885950403726
K 18.596423874698548 9.8523665814471 14.199771444748562
K 13.30501005137582 14.949381899557505 10.036434350146807
K 16.58149304443147 20.45048944997775 22.24215077488391
K 18.315582015627264 13.732805022478178 19.254247102128723
K 9.90439358886928 15.37028489973003 17.11654940156303
K 14.97025428564427 11.660991688133725 21.72803461313624
K 19.49782655831733 23.28068961106967 14.98442598958085
K 12.746143348425486 19.676666138884574 11.15339562777592
K 16.75121061543127 21.954475731571943 11.449420614412988
K 18.272821268784288 19.113810234433583 14.637610631797862
K 21.6997758503137 12.266507372543302 15.91442549928771
K 23.355288184822808 15.313873680134936 24.089318424432808
K 20.787623823097043 20.05130368053565 10.962021960186812
K 15.64688249044032 16.03038843274688 22.589566924161325
K 20.727067120703293 20.754985041426263 18.974009189022933
K 22.65783440102197 13.257984738437568 20.265171262822207
K 21.174419146458163 16.466808575847274 17.20330973935016
K 13.111471409631916 12.724426950619147 14.195870639038825
K 9.869056676206469 16.1406938859115 12.653987921276737
K 12.193515150366476 19.337196694053027 23.337351987871624
K 14.244278688728338 14.519345327814838 18.217888948490835
K 16.948444853128287 17.35894001717219 10.778968707958859
K 21.13911146119157 15.927634816485435 12.757737324575288
K 10.194644676700753 19.699021609730107 15.712558254050936
K 10.12741627501088 17.50596259793876 8.362818729850956
K 22.912161636572357 19.98215670540042 15.10588202552815
K 17.11920853677706 12.75666822187021 10.769079548748373
K 11.308999004982214 11.30944763827905 18.59005148339017
K 20.050146575337195 17.147461838073266 21.8787269107341
K 20.268110027570188 15.309918601198294 8.420092908997193
K 8.930640449182716 18.937478536293693 20.22998273168209
K 24.255621679515134 17.692251786711793 20.078141538975427
K 16.545599645684174 22.621134256656628 18.45685349989659
K 19.355669819202696 12.775179799853694 23.400039886607853
K 14.004698105533615 17.12707313452262 14.566391095682329
K 12.021008246089801 22.466505561380636 19.519164250871004
K 13.138029920050817 18.547167613973944 18.989134455635764
K 15.665058856780346 10.35828113500434 17.368617011944092
K 19.690976371393624 9.65767530140407 19.325052032919853
K 11.305095980459681 14.979757755446146 21.550989253785318
K 14.240388639553395 21.528311814021695 15.13968090206664
