45
Energy = -37.29973359 eV
K 20.856958378600076 16.952066232551918 17.22735041969002
K 19.517569826627287 17.63395071805465 8.192757331591467
K 14.608295919420764 16.628250905725054 24.154982000442143
K 10.562252491522509 14.71871213088375 23.125393639754552
K 13.431025480527412 21.21040634369025 14.151858998691615
K 16.03104655854304 10.981490505504622 19.362107578166757
K 17.644223048092044 17.367409025380418 20.174148194006527
K 21.21957935885878 21.141307215423172 16.083474537219193
K 23.543108054282012 16.15295926063073 10.293378383776982
K 17.574093895437997 11.081632937239593 14.787665088338493
K 24.318318039623858 18.909922937227464 18.88321108272066
K 12.215740881663201 22.539637166010912 18.593863107193073
K 10.026068879699137 19.1454419986318 15.993339056578163
K 18.105794471852118 13.76963586178505 22.561802220694958
K 12.939728806567313 13.457600330868315 11.619351402842458
K 13.963540460548678 18.65273558600469 18.233853079084728
K 16.389505501521203 11.117604635863234 10.392893335394435
K 13.13376772106697 12.695933371900084 16.174214848384292
K 19.98059279977397 13.652997093959973 9.820119533572516
K 10.203099339142053 15.462519793889744 18.500887802174727
K 14.198540778552548 25.18678174727915 15.584318379455688
K 24.39333774116746 14.48421543219546 17.833238975721308
K 20.327939541220793 12.647052956009473 18.68032568747687
K 17.63414035157401 22.742476133794813 13.567555191789378
K 17.36314465675585 18.811777042048966 15.477061596960523
K 16.072153740270377 19.091599709228557 11.05955012417321
K 17.083374437327656 15.033080888058404 12.644461677215352
K 11.230799702463978 18.796482164952028 21.448038200991466
K 13.614643933198462 9.368527635294475 13.45081280917788
K 20.39056098557109 20.502259576797098 20.46480774557554
K 24.302367130036203 17.543084653982195 14.473207930871284
K 16.835521650787978 22.343865142262985 17.97271904511967
K 18.872881815422808 18.109749610862202 24.176490260834118
K 20.414278313641372 18.221992022601036 12.483815345372774
K 14.115182385396984 12.095091167479156 23.801837310815177
K 21.90288154471652 16.047424095458087 21.458789563150223
K 11.734868586031658 17.875708380789387 11.02387498960328
K 14.026753219204249 14.808762237712168 20.343880225597832
K 13.536338023994183 16.680048254796763 14.57598688802204
K 15.438329175912758 20.646806066803766 21.97679828455022
K 16.959711252881398 14.745438708942945 16.972115534329436
K 15.607667326243437 15.423636162338427 8.573886000196534
K 21.337296980649537 13.993248627093765 14.118092895924493
K 9.58526603201568 14.929996849854398 14.082220871292568
K 11.45030704178727 11.291276942333559 20.12205908566047
