45
Energy = -35.36413951 eV
K 16.885959555797367 16.58887641674826 16.160181114070674
K 12.258815196682324 11.834894725844713 11.894767978915638
K 15.912671498120142 22.955050440396626 20.610694093018136
K 18.164866434355584 23.00262461773187 13.480795939385974
K 23.384687933956904 15.07904401451922 10.907250938772696
K 20.24519021033272 11.362990931174943 19.449477659487542
K 16.54725505161123 18.78001693778729 12.160719832305098
K 9.72690548147806 14.484364711738317 14.143909259356974
K 12.081278047927368 21.738364388890073 18.791704007266237
K 12.850008464205086 15.06432263582836 22.585167502202125
K 16.85416415615568 11.762554304887345 23.075636108718015
K 13.958834889722505 13.324678631633398 16.252033945835116
K 13.551848410215149 17.43586686769642 18.894211328124385
K 22.85057816294429 12.765879265802424 14.859315757826693
K 11.261844726118095 10.268057110078402 16.20451945811152
K 20.094464918150024 15.840487429563778 13.334392415561641
K 13.071092039947507 17.326368696992233 14.428012403141498
K 10.320946162644715 14.383956867499075 18.604269252104597
K 14.968649114882123 24.835858144430865 16.671692114705916
K 12.977279927686268 11.329460353457327 20.33672419359199
K 20.917048976728786 15.825279174980835 17.861406859010835
K 22.670068354514086 22.495088513176793 14.650098688263654
K 18.078784348480177 18.798356404141046 20.108330269800675
K 21.24847618063984 19.59694540279607 11.336524358044139
K 9.878558672961049 18.228472544781557 21.166005132289595
K 18.402269797801512 12.631560006778038 15.784321435517148
K 12.649446015783244 16.108366965271237 10.292662226674235
K 19.365495861034535 23.357343600360974 17.74981641859863
K 15.783514749775984 20.699808226447477 16.70523794659691
K 15.836679286862564 9.727997331042966 13.7926437447345
K 13.902844297997323 19.582275661308596 22.681930756471292
K 16.29447148723002 9.637240099133876 18.210476199091133
K 23.837603303524347 17.75035720077752 14.621159422023615
K 19.987726726789628 8.801840016261213 15.443024545433232
K 16.678877532884577 16.391055874260154 24.071312458841255
K 16.623477764828028 14.298724143825963 19.802604399716998
K 9.524895240511045 18.677553503363153 12.194358909867212
K 9.545605152218895 18.49454095231309 16.686172349781973
K 22.549211286597746 20.082145161594443 18.678731542952736
K 12.629034869516738 21.729485280419297 14.026015820944892
K 19.81477376515361 19.579390227898543 15.520838612554508
K 20.35932329526559 15.179933925174865 22.17174795864918
K 19.086242659314326 15.847116618606256 9.238498535536332
K 16.050170057935276 14.190995120427052 12.280347492406733
K 19.897373913399484 11.703724532838864 11.659572594378771
