45
Energy = -37.44612876 eV
K 17.61379399508811 21.32810454042264 18.20015973492823
K 16.2368397137996 17.050578131805672 20.06691847604411
K 17.192205621596415 10.28001842466807 14.949772915744951
K 19.386455251663932 19.4463912909815 21.932019872892333
K 12.822201346272998 21.107647151512165 10.952686670697455
K 14.870012030891145 17.24972244592917 9.813878564354802
K 24.07182106286855 21.57221326622562 14.39413856729409
K 16.94385875095395 13.404365660764778 17.88904310013244
K 11.889542219242145 17.173183575284934 21.464702701883272
K 11.051896444936142 21.64971925455746 15.110901458649293
K 18.39512074861879 17.31128966941223 16.270109006540153
K 21.928005474891748 19.656619627867414 17.942809658992406
K 26.062411880333926 18.629039777059166 17.06398063200567
K 13.63589451977962 19.706142808219475 17.792057284217744
K 15.563243728931367 23.21549112306371 14.484518176247915
K 9.893070423823582 13.592739534421604 19.11474120634992
K 12.078467399957427 13.967922997011687 10.416891208546918
K 21.853286013009846 20.208021016069342 10.543121089467686
K 20.06296749017534 13.692412019135157 14.521887009111875
K 13.083116632580063 10.936999745504023 17.12274555873242
K 10.404850315115922 21.316684256397796 20.205895462551
K 10.38006778354984 13.470328628088554 14.59499437888909
K 14.717980563911832 20.750161037863677 22.015483363900763
K 18.33996904244958 12.81926365449453 22.318113750950786
K 23.0384614748902 12.986128627286567 21.896724187223164
K 20.802754122746453 15.960381549673846 24.315791523532038
K 13.377921794913748 10.400890049950283 12.67002580260166
K 20.356442636374812 15.690191539193801 19.80957203963653
K 19.646977342030805 21.054583762637893 14.150024856646798
K 24.023412895865583 17.510757333043866 21.374708433776377
K 22.698684224757283 17.48256205509234 14.09813113721002
K 17.38628118743609 21.097190714705118 10.397064434549785
K 18.90816548346899 16.99087477546449 11.610592676710786
K 15.23640913971514 14.475845654836318 13.753070796969533
K 23.880835864199398 14.84577459613752 17.64261758970717
K 20.62954452654568 11.319615541357095 18.443033107335474
K 11.33628533784067 17.514189877055337 13.097059886177844
K 15.377624652047599 19.033966954308003 13.852400678955776
K 9.466246589066452 17.764699571248215 17.30672897261719
K 13.92415220672188 13.143287290541771 21.250202577403993
K 16.023025983448992 16.470553103043255 24.146857542160074
K 13.174164869696842 15.566842235871576 17.2478973220388
K 13.71714610148446 23.918983481802535 18.62424491745756
K 16.504664498736012 9.460045666568561 19.59541973051752
K 16.924132272580724 12.687987642433168 10.4466735966574
