46
Energy = -38.314795 eV
K 18.02524997738535 21.330562830401732 8.309268604151033
K 14.91650244601289 14.896319352193219 10.448553351620305
K 13.775529437746385 22.532371993933843 9.365697200412656
K 19.23250965887543 16.81702597757985 9.783964946888656
K 11.704347505263797 18.469240023764932 10.810657841287139
K 20.355347003837522 20.791157877439765 12.064526590897422
K 15.952123920289699 19.273702403559856 11.338001573447313
K 16.734368560821768 23.521652996364377 12.632141482959161
K 19.109301282135014 12.64083866711913 11.945668794883005
K 23.47547768202276 13.912881726678739 11.783271671358998
K 11.391362489071426 14.638989814956334 13.475853355536945
K 22.155311779020213 11.62949767001825 15.353980919302249
K 14.638877480744139 11.320320150531357 13.723812216823008
K 12.524890189905255 22.002801638220365 13.60296571550883
K 18.11667806315499 11.767355021639302 16.49127577864322
K 20.891222386094224 16.500828397687265 13.74548466129242
K 9.214939041757209 18.621046168493404 14.603446193946878
K 13.452695902560107 18.079729004384273 14.899894720595029
K 19.481931752626735 23.377587784149245 16.285314292908183
K 17.759345504549014 19.493185067556354 15.214046213820419
K 16.680105797584798 15.40843212030726 14.17575155074865
K 10.069771287675998 15.49487891506889 17.959226742597426
K 22.133337819066313 19.65653881562472 16.52184076575638
K 10.749215072245578 11.122538029979642 16.499329293181912
K 23.7337180263398 15.420617982943494 16.901725795772734
K 12.78661814082582 16.453544219176912 21.640658284705264
K 13.939175496471229 13.862790953989133 17.18484861412424
K 19.29962151017951 15.961146931050266 17.7758794352047
K 18.678148256778265 20.12363857826295 19.39577944725245
K 15.449225019786418 17.54697682678566 18.596261883173998
K 22.058403114665097 22.48865350359773 20.13122787263579
K 11.988667868175165 12.1364533035792 20.936618517613528
K 16.495120745784725 13.097102777246551 20.522533127172007
K 15.181186929123696 22.29329090488345 17.285844115147206
K 22.037948807378477 17.72170805386149 20.784099218255996
K 14.638075971951265 9.544750565451224 18.328923464655485
K 17.70069483897981 24.12075321875022 20.710105557668125
K 11.602790714336985 19.81893013761321 18.436149456906108
K 21.24308268245606 12.930117961515242 19.992453553514174
K 18.815612215267514 9.217873928049034 20.36278768058403
K 15.216120048948854 9.534993601841396 22.900191076075004
K 17.847242391402233 16.68883260838518 22.48490384848477
K 14.817541732867554 13.624510950678372 24.611151154043384
K 19.34738104918353 20.879419671044033 23.53797057280916
K 15.035129782954225 20.565184167783894 21.89064057593408
K 18.913325473199563 12.034499563361114 23.92054512720183
