46
Energy = -38.19084869 eV
K 21.37878135635286 14.533532930779092 10.51803704631807
K 18.115011469197373 12.706964690525396 13.04265551396383
K 22.092356570326846 13.374832875935608 15.08029276565182
K 18.889081223115202 9.278314679063708 15.87685502530871
K 0.03012483740019482 17.46778834544031 13.400416304008365
K 21.012596259160233 19.048152156924345 9.753144063124626
K 14.161250531290188 14.2522573259661 11.591807732278086
K 14.50854442907534 11.586202275583247 15.524766674299753
K 19.97879324637597 9.931962273449859 20.136777471224352
K 14.183066351140646 18.578091707195988 11.187501696281451
K 22.42369788463874 13.737158511288456 19.562036374274605
K 18.291024465306208 17.099659825983622 12.677551041530958
K 10.803943514302045 13.91249358513046 14.502557798192028
K 15.584795064085531 9.208927659907143 19.252377153102824
K 1.4548465218710567 16.99941706770669 17.711544032435334
K 14.872164649071355 16.21797911533112 15.616931223183183
K 20.80002667706622 21.360765068295017 13.939329839147032
K 17.384301579533684 21.553581776052194 10.837505028143836
K 18.259928854464185 13.44541797843666 17.58669939849365
K 20.22702782182689 17.472079479272598 16.80438027354387
K 11.090859444774685 18.450037547485046 14.168740799518536
K 17.031813370061492 10.46147089422175 0.32215824180929153
K 11.032993722371856 11.357869607009887 18.497010384436937
K 14.538036100823922 13.657245393233065 19.93783236709581
K 21.524022795160068 18.100016248801875 21.17434876452724
K 16.71902689038939 20.436619592750088 15.360076185644958
K 17.2634584307597 1.8134055598388155 13.610316797737077
K 13.391334664822644 22.477521525068255 13.457984235131194
K 12.688739636883732 10.314593078446011 22.760306468186677
K 18.810963963133354 14.307716575798288 22.046207880332663
K 13.09350589024778 20.37208666188034 17.950122115245655
K -0.0755868774795097 21.264215331980033 18.025142431232066
K 16.701222580163428 17.670509392840508 19.51652780667419
K 11.05327319139472 16.261382777689708 18.276273568148127
K 10.532423843487221 14.126574045650608 22.294886523509536
K 15.615446026016258 1.2756770190996156 17.743470217989252
K 14.846090992469655 14.387632523953052 1.1426111459297355
K 20.312811438336 1.775771226869035 16.768408839757843
K 18.905679271716902 21.511159673164258 19.135974633410015
K 20.250447149066044 22.046014545289665 0.1826418519315043
K 17.61857997926488 18.396463607951393 0.658220929281873
K 13.063377258304879 17.963958632447262 22.054110212366982
K 22.364259023656956 1.8999735403294173 20.642661873743577
K 15.400927805324576 21.88626265499571 21.734713842507233
K 18.43625663766362 5.532411088388753 18.42774418492891
K 18.08001817216624 2.3857029676656207 -1.674750399992667
