46
Energy = -38.29812899 eV
K 18.415214976298273 21.232875938646078 8.262670967253241
K 16.488199691412994 16.525599412205388 10.055346719178905
K 21.221391997990548 17.921663116543655 10.06735539583784
K 21.832294587431743 22.467579316306335 10.887881896533884
K 14.468686548799099 21.079323086437324 10.787958131652752
K 20.36566276107344 13.506558263321427 10.071380389093404
K 11.39480987883522 16.94938309116759 12.090799428212662
K 14.460909740559087 13.720166641542006 13.432398910046265
K 18.490159501007067 20.255607028093294 12.356314590340462
K 23.244083453018142 15.145940106426032 13.194794535126873
K 17.436300583025805 10.811413091835718 12.146611228974598
K 22.426081438800406 19.24355524322406 14.522794712407073
K 10.241221786794252 12.654136504237506 14.987225975189718
K 15.106173649580107 18.155027666914076 13.907712127448415
K 15.69668805424459 22.655170533508976 15.191514350135494
K 11.432366271886902 20.55588456927381 15.143400508567773
K 18.929211892156445 15.494102581275735 13.548849618672868
K 21.28354032983184 11.451713855508986 14.575153330497791
K 17.762108620809563 24.443828646931 11.390874177929309
K 17.54938898179227 11.36776287434854 16.3936183796758
K 12.141814214818993 16.274990894278815 16.476311871533113
K 13.813162139462115 9.338747139822987 15.074107211601195
K 18.711491280641177 19.12840761157979 16.495641687721733
K 20.200817785087803 23.312171997742244 15.076250784793686
K 11.130603272633648 9.312831697743787 19.11505309075141
K 16.397390365256054 15.508595423979676 16.99935701523211
K 13.597946561075137 12.442854077134797 17.984654196841646
K 20.86389773801856 15.092829417818436 17.577831272597074
K 9.815604275205366 13.951859762658396 19.450194561089933
K 14.654994456315382 19.41385201095297 18.10275279176864
K 8.173630110481445 17.021298306020757 15.622124035540377
K 15.757709614523021 8.927500353073233 19.81604592975752
K 20.60294944755943 10.84483058162237 19.56501189529415
K 10.52579644839305 19.057224751809137 19.505057985746024
K 13.142581285257538 23.12736707374765 19.03620852535507
K 17.186235115669188 13.198308974609722 20.418084625657063
K 21.78643085796469 19.261946425382583 19.621525809214226
K 17.880905811673927 22.055838598385733 19.76661186233297
K 13.589602207099148 15.989132565803285 20.783839050432658
K 17.865091950743704 17.534256299774153 20.459726338276493
K 13.34756871615005 11.753955750497697 22.44025750852918
K 20.846957464997875 14.948719915066036 22.25205090660147
K 14.729110863770416 19.959677194407913 22.467982668014642
K 17.681392727681256 10.74499220054781 23.715076533510338
K 16.57590560519206 15.421806450837373 24.13487426894462
K 19.459770464889843 19.462568482863045 23.752567725996183
