46
Energy = -37.99823994 eV
K 12.234637479665295 17.623678176071838 8.919584944530818
K 16.14222326260139 19.627766214308156 10.039643036014079
K 12.213085754115912 22.010177067530698 9.991936542524874
K 13.083570617315628 12.867263135643197 9.572526845082004
K 19.616603684297488 16.68614314694157 10.215679774722892
K 22.455227501049485 13.030664321509928 11.47434048869053
K 15.009898217165162 15.599675161623457 12.137545706677566
K 18.082154060091355 12.633158520039531 11.06904970377241
K 23.684890964139573 17.2095959036379 12.552415215903547
K 8.85135085630754 19.5849698511088 11.817587575184845
K 10.418293915346592 15.20840474433181 12.030066435235666
K 10.337800560367835 10.808931569120167 12.867761481240994
K 12.773951551397841 19.132552109531254 13.258627446706422
K 14.852432719463108 10.516800051027312 13.328786059533343
K 15.793249234252087 22.740001316365262 13.150245540944912
K 17.161838553733777 18.64280505422846 14.32518238302996
K 20.223258715730054 15.521792672167507 14.33939954663961
K 12.576533598440074 13.281588534605921 15.869326410236528
K 20.308677185555 20.520727991643472 12.42468081429997
K 11.19107040885393 22.851801460782763 14.443141012970939
K 19.833165881194386 10.949090311799582 14.7831847221613
K 16.751428108944403 14.003989348713203 15.69419419540734
K 9.51872848746256 16.850877466602636 15.791645922256366
K 19.624403129011625 12.863015598848994 18.942590274506454
K 22.15774950230861 18.662707741335293 16.540018478543406
K 18.99748925069661 21.92021191386297 16.725459223014933
K 23.42187701544791 13.827099245952553 16.68263850044341
K 16.03586331101698 10.217539853064027 17.69522821371357
K 11.907608158432533 8.894441506903537 16.56911531916493
K 8.886531704731135 12.24615433238307 17.377906898675118
K 18.235787738795302 17.663005861470747 18.500032756601925
K 10.859022939879859 20.07623456658303 18.35082275830692
K 13.94829630917448 17.20510114848532 16.93244369779678
K 14.68173943015108 21.578045825824223 17.22434674438632
K 12.533395526739197 11.271229196613517 20.352572948338167
K 15.667188935953805 14.303561386337602 19.90564746521153
K 22.00565847117516 16.083472730805923 20.574824551052473
K 16.987242458148405 21.840722448847345 21.04052884257214
K 23.320850499656547 11.900742120758064 20.89798092882931
K 21.03468835159867 20.432010691827497 20.565317347724495
K 16.854332026554612 10.6176332132355 22.161957684767543
K 11.17752104794522 15.414504427169064 19.831858256244622
K 14.22128824677459 18.405837532185352 21.24892687782644
K 18.256794074603736 17.499643248395312 22.985038642089155
K 14.94992916728994 14.343447208571463 23.941092172600122
K 19.739476479904503 13.449989164686324 23.475904707303958
