46
Energy = -37.99877314 eV
K 17.05131581596593 13.717146686631535 8.952441208082957
K 18.09341500637393 18.099609384714594 9.900835263309077
K 13.687820640799012 16.89688018690196 10.17759655220029
K 14.896292493621132 21.978771159209586 10.540833124717981
K 23.671777242537544 20.33668437694391 13.429586668376208
K 9.673729447312974 15.202868155456255 12.023674278863151
K 13.434733652822802 12.50453352512288 11.838010250333925
K 20.739463730946827 14.284521813836212 11.366500920976593
K 19.704622320225287 21.7965239387415 11.865098568921102
K 11.25403110842905 19.70672328044128 12.701316015042462
K 24.161838110179534 15.877806537379133 13.803723883704322
K 16.85742866644709 15.303568294869228 12.911229683251838
K 17.881529089685277 10.948545831127555 12.792283226032826
K 15.898700669932412 19.781628628878046 13.88321272621044
K 20.16409817874012 18.00346313981857 14.173798512202206
K 12.801991220830228 16.123226915876238 14.521909589419087
K 17.078288582798663 24.23452363625635 14.45075232657617
K 13.037874682205395 23.013303901738112 14.977130970942966
K 13.923304937696733 8.929555957134085 14.82394309120143
K 10.67376925289352 12.209959470945927 15.871569174818966
K 22.188370226643098 11.338715066084951 14.404544269482932
K 8.854168312697734 16.234466002855832 16.985970898413076
K 15.367509964619607 12.751610165900503 16.062799216978295
K 17.45942148908264 9.402753748744255 17.45357593976533
K 16.11357569729527 21.583382025981237 18.12010772993906
K 16.328199765519333 16.95100771706898 16.912464250073533
K 13.356644195574779 10.78173154680696 19.442279610617543
K 24.320213866512493 13.782335883153706 17.61304036907797
K 19.892700540326487 14.338150248430614 16.445829834356303
K 12.686932948164532 14.972144531123378 18.70382020907362
K 12.22088552387928 19.371008041630137 17.4484008063878
K 19.254146928002175 18.367687876408116 19.388953433229855
K 23.24393536084036 18.159078126770282 17.627712213413588
K 20.37525394070615 21.66365322699168 16.426273315096307
K 17.157733689677634 13.702996785699995 20.066542126439295
K 14.998381353282007 17.942420195238785 20.849730012429116
K 9.328321106991702 13.182530179255762 20.399794601092882
K 21.670673412129002 15.151499587546374 20.968059109072584
K 21.986384924844977 19.216153918570818 22.479005361006514
K 21.138008195795077 11.134290178403681 19.147928543477338
K 13.366789313210983 14.38718490037988 22.963101563324255
K 18.13595172261459 16.721971174605482 23.643176792784633
K 12.906610251651806 21.624962222218674 21.424217722506892
K 10.372505882567937 17.59532517660258 21.33866386523517
K 17.4272205441079 20.986542592489133 22.74274034043942
K 14.103790361241265 18.646908427437502 24.87617619952678
