47
Energy = -39.39379998 eV
K 17.34928792856557 17.308448355066083 8.633269240905687
K 20.668472899096297 14.33849694577333 9.81623271777105
K 14.144229738272958 20.727481396159853 10.200156034959447
K 18.811509786462963 21.52499704077356 10.143115076999477
K 13.206836055488694 16.34309684678327 11.29801647965598
K 9.825150572331323 19.585489396488395 12.055341900625217
K 21.86875187094908 18.467959369799523 11.08629303125157
K 16.921904486707422 13.596313128522455 12.056942630451193
K 24.15578999403442 14.689471214415645 12.506323221864555
K 11.691102752132963 23.56178213109368 13.207058389671678
K 12.820926652349454 12.085567860230892 13.581289587849072
K 17.27240982202359 18.305175463702763 12.673015496659378
K 20.36766510090088 15.835089641861416 14.386920510766302
K 20.7519707778224 11.391733431366374 13.655729224535394
K 10.216991647806314 16.158458337321214 15.092496645617262
K 16.237328808394185 23.030593421810547 13.620471967403912
K 13.55508818158905 19.793551670392258 14.605238004440993
K 14.524925659627261 15.688100847577983 15.651859746146124
K 9.756367911475873 20.36737366841426 16.622863564507618
K 20.530424807211997 21.080946125694517 14.63289366819691
K 23.97584528115578 18.048972978184125 15.811851724596552
K 16.587566501453168 9.465291249413594 14.709418464549222
K 17.778612667571565 13.162689948236672 16.723163426005527
K 17.85054365331583 18.4013781273147 16.96440530497668
K 12.845049473760522 23.61202475182731 17.705418238430312
K 17.333064793630992 22.603480447103554 18.132476631327684
K 23.35432109482746 13.543175982402499 17.00110886072798
K 12.434470044589954 8.526447647379158 16.220690987569785
K 21.707261630053246 19.977163269289584 19.204013186308575
K 20.381899736401813 10.180532487548016 18.43180579265518
K 13.939735291414296 19.455478849796464 18.861691018715273
K 12.036437290272012 12.71171873234755 18.097665344430823
K 20.316424871265454 15.588021711751608 19.4852800606138
K 15.48539286324244 10.168840643761438 19.2098917718086
K 24.81820166618996 16.59641908451645 20.24710543319516
K 15.63437788059351 15.432019369565058 19.983574751130035
K 10.889917902735567 16.581162114278158 19.922526610055634
K 17.77213627299268 19.208009056884087 21.41672991683296
K 10.559895285275955 21.088496237097786 21.126981247860318
K 14.699311478571714 22.569144250555727 22.190746006717603
K 22.934284558604077 12.827874716589704 21.688549131532945
K 18.430975418864232 12.16094340430978 21.830365807771344
K 21.473139362076893 17.306498423883408 23.38798534369241
K 13.574661367905527 12.920834396979583 22.60334942097697
K 13.584101144076062 18.12935720743972 23.337024498420647
K 17.31525732701565 15.584698618502184 24.299086967717304
K 17.30658169168392 19.965802002576137 25.578168913885424
