47
Energy = -39.29945709 eV
K 17.428174320667477 17.39624814717455 9.774870995798794
K 12.882419637536643 18.205335778487136 10.174792629107742
K 18.55538320729959 12.869403697349265 9.471908090078399
K 14.437512486165998 13.951913135538081 11.357940605088382
K 21.896899710515978 16.21217246921607 10.748093554075602
K 16.202183459039706 21.603709326263864 11.722583734357356
K 11.024531037204152 16.230428011504443 13.988492035795991
K 19.728740440977806 19.469094952014107 13.298072856499937
K 25.713986522901724 15.16484672270079 13.249385098051132
K 18.493892255480034 14.76598610630787 13.283284070637876
K 15.173969119628394 17.771143031211523 13.70865342102968
K 10.624335084554938 14.347104008799754 18.134492192359662
K 17.644643191241308 10.614935992226522 13.559778690333284
K 22.035853006430397 15.4384704026349 15.696869267885562
K 22.25069854206804 12.075693810637825 12.575029577312911
K 14.423078334716742 24.927848734396704 14.338285850254913
K 16.26922669533211 21.401508878362478 16.433452393272848
K 12.11182064947229 20.824121218277554 13.981810083993617
K 19.311054584894237 24.103203912917948 15.101989963073597
K 25.348322015098773 12.117550630658178 16.27228249141393
K 21.55787212299154 20.058361283264052 17.356986980033053
K 9.12798922069903 18.99650883065926 17.035448840658507
K 14.556565101147074 13.694203576099177 15.987289519952109
K 17.878353724263594 17.117384266331527 16.754568400056343
K 18.552194664646684 12.56620037306606 17.7518042805751
K 16.268944020041353 25.71936795197682 18.187505120906224
K 7.660787576610832 16.65330012228684 20.46820785495371
K 21.587067609500824 9.55287829461562 16.21606002736525
K 20.007799235285297 23.756969262009516 19.708089522887093
K 12.081610116141436 23.062910578237776 17.80081359511096
K 22.717052333335563 12.20562781160499 19.737069924241847
K 13.357860112779731 18.22112427407023 18.079493501062966
K 24.99559725835671 16.24065607554324 18.860485680009216
K 14.362931411374431 11.790447779071998 20.407537007950676
K 20.595917373651123 16.25503735355238 19.909268067599296
K 15.983860511204565 15.678073074562198 20.43354517017363
K 10.780732893501295 20.032321386659632 21.19397047553609
K 11.69276618722549 15.552443480685636 22.235273519682067
K 17.856510653176763 19.76409565801429 20.221049758065618
K 18.957957463041918 12.828130624917266 22.361944320521474
K 14.793154421791384 22.706996425329002 21.16705309189476
K 22.295595264920042 20.00316427829615 21.916080777891697
K 23.11405674312674 15.490788560237267 23.14751617127137
K 14.703312071899287 18.869773441687492 23.45714263660223
K 15.223035049323517 14.15740908393161 24.55267634605965
K 18.92081823759328 17.27876572819169 24.06866023454778
K 18.520009185180026 21.96341632245598 23.81946643800721
