47
Energy = -38.94722251 eV
K 16.761347485208336 20.663651886543775 9.029335252572942
K 19.987950517510015 23.99469411367667 9.894775319333823
K 14.081981195157859 16.548212935155817 9.804166721374
K 21.091471323479983 19.46234981910323 10.441423548792049
K 15.72422387220009 24.721805150826434 11.256651772911647
K 12.71292467560644 11.740959426860584 14.308217979736389
K 17.465800230162003 17.38171288191363 12.007457078248628
K 13.873242885889999 20.275000026684136 12.619829421936906
K 16.74297981354972 12.85967960851114 12.451643244656905
K 18.211867613619003 21.769236331294405 13.014023497254174
K 21.165016978067822 14.993355553207097 12.501254020924236
K 19.084858729897896 25.784840702618883 14.1060882523583
K 24.399831162091704 18.266733900912435 13.293354775956198
K 22.513140045058748 22.560946216326784 13.589096738180684
K 13.801656994948873 16.04453879967558 14.379242568926523
K 20.575184054518882 18.624501307966103 14.90336238976111
K 15.268109245734642 23.607077814158938 15.678744752499583
K 16.42033742114581 10.357289248168842 16.398360293129606
K 12.460738440142734 9.079012804828256 17.94331863557448
K 16.4886984859866 19.254375870044154 16.116251229550766
K 20.475417877037557 11.362956198957264 15.495859168237606
K 17.912184290108303 15.024827026388417 15.987652254359267
K 12.333465618684867 19.265318985265424 17.09011457766322
K 22.305267652123284 11.104145457985583 19.674358573857756
K 19.53939121461859 22.351331542613774 17.522862959216614
K 15.583522484765021 21.57989956600277 19.662787394528863
K 11.1147062193937 11.925695823759082 21.133780891697004
K 14.13857597006815 13.408052089593477 18.29603540201334
K 23.66017727260575 19.52212951668591 17.81394422505758
K 19.726988856392 18.02249334457513 19.23178631482565
K 15.651203697812727 17.07988321124666 19.77668289324316
K 15.199639514320967 9.952563364630182 21.216063016591605
K 18.456814037603234 13.238014025630587 19.69738956401736
K 22.486121902415423 15.037504178600894 16.890470438721334
K 11.619798880496003 20.81704958021352 21.2852874754999
K 18.943078240555565 8.50394597006308 19.64535777831997
K 10.277565049888713 14.823834323870551 17.00328057999111
K 11.589288907167106 16.372699284929183 21.06254576513219
K 22.756529730597904 19.364310717065724 22.227991933424168
K 14.852157771336147 23.08664544803604 23.69662472173013
K 18.702456512874456 16.270525122830076 23.285738377507855
K 8.40687595467753 18.497842781198077 18.834937392343242
K 18.558806698947297 20.747379768151042 22.608006434911537
K 18.95412985247803 11.345143220599647 23.38158755666229
K 14.744708842811528 18.606682101273883 23.697388342595175
K 14.986745797667858 13.911045064872313 23.0126314680123
K 22.535034687773148 15.130122591683415 21.374251711359033
