47
Energy = -39.21441473 eV
K 13.628427422954129 23.602560958628477 14.953656493552325
K 16.389978447836146 21.344363189317445 11.913704264805203
K 16.55264034230216 16.9513371146803 12.932968466097064
K 20.919168126885346 23.0756252001437 12.206409196820227
K 20.29725839122335 18.76595045888401 10.565296768851903
K 12.29048983938291 19.180418526359997 13.906791510532855
K 20.987061320050397 15.234756941640539 13.639326466176561
K 17.145208700316804 25.89895088922039 12.206951860780732
K 16.995294810099363 12.786650051876238 14.138544108330624
K 20.733474163920228 26.68648855626399 15.06732031363117
K 15.706391835453353 19.822733005084935 16.20440213387735
K 22.579261497536756 22.60022066985767 16.535761395212962
K 14.573046267303832 15.71920065542489 17.489058996106646
K 13.351475603708398 11.215096505078625 16.48726730798072
K 19.703430683875773 19.526420119109577 14.63537287013503
K 17.132773285873697 8.60706824299285 16.06756520950714
K 12.726099768534908 14.640321958060376 13.599813806503901
K 20.792797326253964 11.63680928595077 16.290702945314887
K 23.89404751549318 18.891730782494097 13.896286013137637
K 18.04178307187757 23.508097676025766 15.539410598230512
K 15.019858351041893 8.628441932363025 20.030589651232265
K 16.328011158129947 27.18197112569007 16.63054128587412
K 10.53769782645998 15.786454105353242 17.5740551509943
K 19.062957163203748 20.998427626318083 18.766917458833046
K 13.022686573163181 12.612832340689794 20.705269494496022
K 18.687473369679754 16.072247312640023 17.39307812080767
K 17.048015969409658 12.11446599143901 18.63770407838224
K 22.180182237733707 18.247141988577514 17.984730504141744
K 24.120648182593403 14.690905962682663 17.082088763114225
K 19.679831837200254 8.906401231357751 19.82906972501815
K 19.71294621728033 25.30399600358668 19.352216558966305
K 26.218322817240463 18.7801902919428 18.007993042858775
K 11.913776645262024 20.359604835582807 18.419034483584632
K 15.693705395237798 19.068137072157505 20.382086675381014
K 15.302200782177126 23.45848705265474 19.240258920212607
K 20.865785523062012 13.564937466181908 20.46168063954238
K 22.58592259810563 21.343108545534285 21.269358363955615
K 19.69365054658704 17.828248195122065 21.576041008399326
K 16.44299137793107 15.045980788955305 21.775195828621094
K 12.245502955982433 17.064564555545733 21.788874683209094
K 17.45686752570679 11.050765095850346 23.10401081411305
K 18.1354547932339 22.144394760389492 22.916337127503777
K 23.90390473896852 16.862270952318642 21.792124301262003
K 13.282528235628105 21.43928994281085 23.026268563669788
K 16.386253875992672 18.39929432226348 24.755951627895755
K 19.79850351336859 14.82905036932268 24.753986155505164
K 21.04776889562235 19.337146872458757 25.281483773723476
