47
Energy = -39.28361292 eV
K 19.01075598001179 15.523694946011414 9.59881118107014
K 14.411258780343815 16.099623717064013 8.692174892648838
K 15.404608396067584 12.120574693505345 10.71884166464324
K 16.935335858285338 19.49425873536666 10.287943379658167
K 22.919470980028006 14.78334240154984 11.910376507684646
K 22.2787614736824 19.085150371621673 10.639782378483044
K 14.699521468494494 23.253816549367272 13.238350894590871
K 12.69439840618333 19.024110528645476 12.012070906892182
K 15.943213360444508 16.005956270951334 12.592196045659982
K 19.11389431230833 13.039670685063397 13.698330227978655
K 11.738987882319991 14.397863627948862 12.242980894420603
K 11.603240368465697 10.176170600108275 13.802263957420319
K 19.39556527953308 22.198831088378974 12.434516376476632
K 20.023872350595703 17.7175275767371 13.759300608632804
K 24.611933489161725 17.51375446262323 14.744421787000226
K 14.822001374574361 12.496596427080622 15.243889499842622
K 11.810990012929354 20.894931698857683 16.30099931736599
K 14.268493848570076 24.197189709949182 17.798795004727076
K 18.545943891814687 23.61837623110925 16.501628039183714
K 9.091326627542907 17.304861256516027 14.758858594259
K 13.139765292565219 16.697056884464832 15.824284456953531
K 16.282917949802748 19.90952626648671 15.053397941965144
K 22.50476497220198 21.32430647992047 15.283091189546955
K 15.149267180800077 18.746780066415198 19.300826419289283
K 24.00340870927414 18.869800004486777 19.02009963288653
K 17.372957776337365 15.854096321442519 16.708116784462838
K 21.696599053253863 15.102968655494807 17.26509537231888
K 10.433497544025252 13.331068357255974 16.771037503563736
K 14.341354565044679 14.324234686793066 19.538395827868637
K 19.681615393888226 19.3811812461824 18.087355421937094
K 21.931991350206253 22.87892331574966 19.476910462566693
K 25.991550312084335 15.066479077294641 18.316303139181336
K 17.35253765073309 22.390383811300467 20.71891195887816
K 18.11939151518596 11.918138802496738 18.549349929006343
K 10.445553782658706 17.23764072518071 19.141127528618103
K 12.550518550040803 21.557062507114736 21.007381769133122
K 12.899697528762099 9.994477155440089 18.340525097486772
K 19.618110924209304 12.193862573698675 22.872719923701858
K 18.535356685661903 15.987932695865762 20.910724879471697
K 16.59045712619042 18.957416690187546 23.6430895376376
K 22.89884623940783 15.329838052934234 21.696421398354065
K 11.332972878955974 12.826552907068962 21.84524704405048
K 20.886890676116476 19.557884555195514 22.368252950151888
K 15.355382644214586 10.597248418378747 21.985938641121958
K 12.589992374295548 17.157761571205018 22.812541182388095
K 19.845776638693312 16.067036021058456 25.08333227553558
K 15.726254796206737 14.39504482460687 24.003993825460057
