47
Energy = -39.2716686 eV
K 16.656906925098117 14.047811656652373 11.667734275641058
K 12.885752044942553 15.947241424746016 9.869835046894641
K 16.606041631840778 18.552304652561784 11.00749038751198
K 15.92794331576926 23.161603982798173 11.353985650007695
K 20.54884003118827 15.918563089551947 12.91122090366305
K 12.167127624610405 20.10778521201924 11.826211086283244
K 20.05443083304202 20.576640242525144 13.306566131266898
K 16.330313470864304 9.63846754566348 11.810925945799642
K 9.455820672412694 16.272149129083267 12.860437768263663
K 23.88207194387305 13.296642081723569 12.187374847903907
K 15.545326795825913 12.453259032667846 15.540445780204324
K 20.06414749877974 11.424984560890092 14.393262337251143
K 17.417349903596946 17.122403842095604 15.53480798946795
K 24.311558655718958 18.171999075781535 13.999452474628438
K 13.576260547310486 16.489578066488246 14.340302281619142
K 12.128817254985197 12.239148695322738 12.700991424911006
K 15.559125867596967 20.867554351024754 14.76640156038823
K 12.160126155763878 23.15746087177622 15.542678193890357
K 18.531749336482495 24.665366038615222 15.141111000618979
K 12.912596614571392 7.9304383026554515 13.678307726116346
K 23.464114772238204 14.037183397200684 16.641925220949798
K 22.768097782520716 22.3273969147399 16.667339993329364
K 10.605851273288659 18.96896575607201 16.37775803557009
K 16.867572154179364 8.363790443199978 16.279818429747785
K 12.522721619552035 9.932827805308676 17.469094635624348
K 10.684615416244094 14.24609882347358 16.99846480491344
K 21.291310578018766 17.9576671640544 17.061418646915573
K 18.59526673822051 21.22899172635779 17.845917390464844
K 19.05744215030926 14.062982199246695 17.85417494096726
K 14.475448595097314 19.50712112511659 18.57384356407913
K 25.366485936224514 18.223628449778822 18.521179958108256
K 14.757612799396464 15.137487243077011 18.946815386850297
K 20.109729399726245 25.02412757063087 19.36266961407642
K 21.03305249864092 10.67166980493362 19.281823081413997
K 15.53302159234707 24.22459998440622 18.856547812967307
K 18.11893397769413 17.74872396288373 20.46016471007901
K 11.37645908151524 21.948578062952425 20.067922014121866
K 21.94379621356299 20.55039281148498 20.875050147796316
K 16.260093291514757 10.998698674762865 20.04991789013345
K 11.18422315416927 17.148212889431992 20.807205810733464
K 22.34581211854204 15.885250188381498 20.883452147029395
K 11.800088998422464 12.542730374076292 21.195195017281957
K 17.847933659175997 22.308880385428797 22.288152484766055
K 14.41191930002791 19.656659115349683 23.109506148496042
K 14.79488328466735 15.18269599403132 23.493058430846002
K 18.91262721854421 13.640977882901671 22.397678274930108
K 18.56520881231468 17.848888936503812 24.610992135904716
