48
Energy = -39.84021056 eV
K 14.08102317172582 21.697828291197553 18.831684755757646
K 21.173580802459696 17.675822944666216 14.239114963006672
K 16.550230482869598 8.05809164642692 17.529949817618128
K 10.636291217437535 16.100169127530304 15.476022018737783
K 16.429035230042473 12.422014500017777 17.86022051276138
K 20.66311771262258 20.949701866018795 22.475772200107258
K 18.09122117039156 18.292405492528165 11.043998970192154
K 18.7872944610645 24.26826660792953 11.545031882509205
K 15.094195290589843 10.423307872503054 21.53826820451106
K 16.368341714477467 15.088069239752869 21.213812592303206
K 13.5234980904241 13.971967824937591 24.0371348818368
K 19.391912203305793 26.39117596675781 15.940587834300114
K 24.25735561507267 16.517621241483297 17.280324629044422
K 15.992374625338966 13.674251616315255 10.63166707579476
K 24.411891566047334 18.352685583484888 21.345410706385035
K 21.91649558380674 13.222377078906426 15.210404283326275
K 20.348010798346692 14.314622322576799 11.166779793166949
K 15.727841462888769 26.206485429374073 18.923667269473366
K 19.62566964734365 15.496313350983815 18.20002463542361
K 17.44484858944648 18.93551680394048 20.040667112898767
K 12.459737926601548 20.38897008728223 14.994296182623303
K 20.66865569424569 16.443952914567237 22.360645043891726
K 18.07414861020331 10.911919656921535 13.962043606255916
K 20.333444380089876 10.277556078805832 17.966915844521246
K 19.234733684701467 12.144207824087902 21.927447423260784
K 21.34061000606574 19.554778579131757 18.327006704466438
K 23.19946459910805 13.424217241651434 20.1504799469708
K 9.649359432179573 15.724447874869975 22.173371988073423
K 15.75391292163805 23.839675115547905 15.112237851202318
K 22.075109834856068 20.985510091049463 11.158330420509953
K 13.939706159581148 17.143649185151077 12.505517749658777
K 18.446119017141438 22.990263209807143 18.836223406799412
K 24.40414919971765 20.85850447226756 15.133574365251167
K 17.07807749377075 18.00390261565659 24.51045173396263
K 12.439036974583708 9.899131366004957 17.894891819204464
K 16.07319195725967 22.24058862397388 22.7503457808298
K 14.538773711311597 16.916238810699177 17.403197831463824
K 20.175565095157744 22.119613957605395 14.870133168635519
K 15.098494390541637 21.476311687852323 11.454176209736083
K 17.535873607333926 15.241626869234738 14.439078489000012
K 13.6866481153291 12.995141481155143 14.588181043567577
K 13.393839704013216 18.34321729381261 22.026502694987407
K 22.978672050940112 24.903672485419516 13.509175727151936
K 10.423590960924287 18.873973410900245 18.93417136007179
K 10.657253976305453 11.201367928543359 22.060935003786064
K 17.021590383610594 19.552367545879317 15.411258481053528
K 12.336928803576024 13.979834474768898 19.315913906063674
K 22.83128711797208 23.86886955448317 18.05515732230683
