48
Energy = -40.35431287 eV
K 14.088355032370195 17.850051014032132 10.010326843247604
K 18.89548538660997 16.775874201195375 10.089387905363065
K 11.165751490109432 14.428689586889652 10.057458975449004
K 15.656252539570993 13.683136306074747 11.538442401319221
K 20.021319935709773 12.226542934714772 10.737239635090226
K 12.645571219001248 22.253453408754034 10.041633491498793
K 9.68451868158612 18.543839411539714 11.473002926968201
K 20.764147616616384 19.3048713657265 13.725097019359135
K 22.996549245157965 15.584842638099431 11.817086739462106
K 17.085078424024857 21.35926444225423 11.529966589087909
K 16.467778396445844 17.665670217048188 13.77003031358055
K 17.4341968832593 10.508889913484106 14.823313112443515
K 12.54214642121696 15.953959183932803 14.088081162286809
K 19.384113225833367 14.545095062098179 14.155994390386613
K 8.347851414815711 14.496141834094107 13.55036978081092
K 12.26231914180841 11.611638531535181 13.792138306692488
K 22.831863552202112 11.877232876498857 14.507875817842336
K 23.322985857648792 16.0978522774495 16.38744204385665
K 14.869395426668248 24.43195318008396 13.76110011393104
K 22.002027674475595 20.392788689181028 18.17655162852589
K 13.005879204805511 20.3821836073643 13.89344726145188
K 18.904567831282606 17.28492217579266 17.302666073646005
K 19.613822834860525 23.720114704598416 15.22114779477689
K 16.713665273314845 21.124619904522394 16.712282810335047
K 9.44759059752612 18.377796374641523 16.116234817708456
K 15.502629671890821 13.765131498135089 16.734403411532973
K 15.605553175072194 25.147898692154108 18.147727185467506
K 10.44914741186011 14.10755944232392 17.609848483772424
K 20.241658292478927 12.637605572962237 18.14681829750799
K 13.024615953940092 10.253016213174263 18.01905421245523
K 14.26200910077598 17.751010183061872 18.185313342190877
K 19.266976767576715 23.380205417248828 20.003790026129543
K 24.48858879289545 13.344117054948217 20.00055382500993
K 10.876734718108345 18.143528644407393 20.62144461064514
K 25.58303674225175 17.801799164715607 20.397276897998804
K 21.493500891551285 16.33422979043572 20.602589242465168
K 14.701552900218221 21.535962066755552 21.129731888800343
K 12.034269998021118 21.89739914101544 17.783783582759497
K 17.284569361508535 15.022850578979464 20.736299476080305
K 13.029276479604922 13.721376941206426 21.126964053038645
K 18.33474731832975 19.328787913147462 21.14624110334805
K 16.8220755217605 10.75322342608402 20.373643448157374
K 14.808948390892738 17.428049714971745 23.357613137295218
K 23.787037406263217 15.606390235816239 24.124530595596486
K 22.48790845594491 20.0142891530293 22.9514883344842
K 20.641907227030377 12.414870533096646 22.93178252960812
K 19.32119871430974 16.663359882056866 24.666374704587774
K 16.333547290138092 13.000638788011349 24.45913354529103
