48
Energy = -39.55822456 eV
K 18.449378152429887 21.41064955000673 19.929361086119968
K 14.040250205718644 17.418968125560777 15.415385203020938
K 24.707955002660615 17.395285049180586 13.425258329186377
K 14.119419604566062 20.9859110245667 18.49493771676801
K 17.67737615162957 13.29954951318019 21.100465938498946
K 10.135243587288796 23.110328071797714 12.895099511446222
K 24.795522176111636 20.91890701244251 16.396317006844743
K 18.245522490653382 14.068858683927523 25.618592563751236
K 14.935769656017236 13.004274826554001 16.308515783797723
K 16.551031899860313 24.53246228572722 16.867865448589086
K 13.07187524123167 13.159339888770166 20.099042766462144
K 16.313064822450812 9.487372515774462 19.89302358981398
K 14.855617611671327 11.459184095459626 23.86937292078367
K 11.503602008690313 24.202219307782464 17.152446339393627
K 16.589035548001963 18.880542330205976 11.70073409297686
K 20.634773743912653 16.41789485526067 11.59306762890471
K 26.423088564101995 13.06890278956599 15.307733622635705
K 22.24833344574765 14.074544127657111 14.969480177415608
K 11.998024035473573 17.546853691775247 19.99235518975257
K 20.82546234361707 15.458695573167777 19.10265886192095
K 11.651153078137545 18.794158431374846 11.944842436584686
K 19.07475091457842 11.799282201781365 16.894820641753338
K 13.930137827826341 0.10437454239675506 17.629579795091605
K 14.984610976915796 20.20989202781386 22.714230258417924
K 14.646200028398704 15.9105798815158 23.33287348307514
K 18.915369776826143 9.961903737709505 23.880385890194056
K 10.731831479729088 14.994061856356042 16.60702989625825
K 22.907795118562944 9.791520546300099 15.710445293574436
K 20.812689458376962 23.306246696345998 16.18831920864705
K 25.156874653227835 16.54287036564287 17.915387225133845
K 19.107395463280344 17.574429335047466 22.803634105005013
K 21.01027658209198 9.735567454663883 20.065361770680493
K 21.902590719594645 13.415119263965014 22.813138293788583
K 17.62922972327225 20.330433532856162 15.732495777826152
K 18.256224135660094 12.796728026803104 12.511713174174117
K 13.76260224026063 25.96963813668495 13.514591338887596
K 18.149306339619347 15.93284103267277 15.22587137756449
K 17.711891228786563 23.60688348066564 12.576981678513926
K 13.879897601676598 21.72010637315206 14.270119389994333
K 10.266045118279852 19.763347031592886 16.184841562510115
K 14.438643871327715 24.549981384918475 20.797439681161745
K 16.61320267427069 18.270728290890474 26.418708702705477
K 21.102254214378114 20.707663760447115 12.563777122344677
K 24.225249879120643 12.415685178012536 19.038668575046273
K 16.509908321505236 17.072954107894358 19.192716650520904
K 13.907484406847837 22.570594080322998 10.19663533171042
K 22.533360919620595 19.423149647084234 20.333367638100455
K 21.442865201021487 18.454482205164478 16.1904981676818
