48
Energy = -39.89542429 eV
K 11.36368558373175 19.052882963587738 13.19780197017512
K 15.45735526737721 17.565052460280985 11.3409136673881
K 7.870150905663594 19.991845139464452 16.633584385856665
K 15.766295064879841 13.213108309002282 9.749672784448922
K 12.498165079674896 14.43938658810341 12.82942713911005
K 10.243032660466044 16.12224016964372 16.538049188835068
K 9.515805511279297 23.100032956451958 19.785890936772294
K 12.39353975432044 21.556279207004614 16.831226951119852
K 19.384824166932994 19.74773655019366 10.772217015466758
K 15.762299529140599 21.42688968255533 13.598114116428528
K 15.015198949440762 10.327714492435607 13.174822593959666
K 13.756934238528318 12.6462636859724 16.825106064492978
K 19.789065401458124 15.404361020211724 10.645807841155555
K 14.060181436453945 1.0948680679216345 19.780595486715452
K 18.919405728898067 18.514862247821487 15.207870985311342
K 17.675465717367764 22.728875900125832 17.54162627701315
K 14.523959852157121 17.566730845651556 16.122169001859763
K 10.387164853740476 18.750667307586212 20.211522961080142
K 20.38159991555879 22.782544201908863 13.605806176760558
K 19.24195836528912 11.008494337942428 11.743781921142018
K 18.1195816218149 2.9602331611559802 20.161244691121354
K 16.939419481588637 14.412712323482204 14.134016981568495
K 21.246241125420788 2.220823870306295 16.87324641733885
K 12.461354717012586 21.991454542949956 23.041221721429718
K 23.0918660071594 18.140020733514994 13.370689084914067
K 21.27163674377155 13.959668043441964 14.681092685449178
K 15.006781431948594 19.749572613700867 19.983557222679572
K 18.298892019073644 10.834990615570252 16.453386113064973
K 21.495044208105835 0.0458255379961688 20.8582712904597
K 13.567834035270026 15.419170603981662 20.188686802773937
K 17.213263908311344 22.558062378662754 22.573241655889046
K 22.477297206209073 16.926104173219912 17.725344554377944
K 12.864290530806409 17.64738834212969 0.5697842435176246
K 22.940519514552115 21.388737125604884 16.862256496681525
K 17.999887831167644 15.389288016384818 18.68518450361939
K 19.63676578776588 19.568241324997906 19.792078066288877
K 3.479468715275842 18.562800568669058 17.08000050937775
K 16.332283534127615 11.540045563059305 20.391482530111833
K 21.66225619548937 12.620046009873159 19.1043021605844
K 2.153074974439313 14.462357150187188 15.57275181837022
K 20.923504040751883 20.404173965640393 0.6061968039545663
K 17.366954070028743 17.24889851386369 -0.3781285068724638
K 14.785341580034453 13.579873839696589 0.7211227761622125
K 0.9393803773712207 19.76063670788852 20.86411651009439
K 2.3631465672161207 15.142537982155863 20.1205906769363
K 0.34854355970812323 12.26125191075956 23.079144181907434
K 19.31689503541676 12.827211395976025 23.319509516586713
K 21.793309602769583 16.281391986905263 22.198558202140138
