48
Energy = -39.57059785 eV
K 16.95565123828081 17.264824553983836 9.343899398539826
K 24.559282681697187 22.346384922266054 12.499601022691486
K 20.774497071981997 15.24243010102719 11.994178227905099
K 16.05433273767044 13.602677567945895 11.838403782728482
K 20.704772978603636 19.99873928710898 11.95214586795462
K 24.63137295982462 18.181294964913533 13.767016220052174
K 13.003218861669987 17.2465799932167 12.092200428899268
K 11.356085738576425 13.01216858662955 13.703924762591173
K 15.999310591956151 21.423197995093386 12.02357121123379
K 19.30858472550449 10.588092795399959 13.128064974535183
K 8.178716642116473 13.299550612829595 16.647761814157946
K 17.202553240352383 17.532283008641986 13.474836837072344
K 23.139767069139346 13.72176370716419 16.720067932278614
K 19.80436782396962 24.331998299638713 13.603569266858832
K 22.437226179535983 21.87513848305124 16.218433871250397
K 15.315078696269257 10.929536631367089 15.694086481699031
K 15.420253652124918 24.239471065893483 16.229999961493785
K 21.010385765442216 17.609909761081127 15.753172014065726
K 13.781823402372613 19.845330994212585 15.858062658778488
K 26.545989498610766 21.540922703435303 16.635393604482424
K 10.401931625266249 17.070798529765792 16.27895111374052
K 18.64216446842529 13.953579566081133 15.712483346157194
K 18.21114360557102 21.082576192270427 15.752597045050003
K 14.298129976462242 15.225431463981234 15.807685426413935
K 12.08105150213955 12.994357967201623 18.631182485202363
K 9.086597231445948 15.821991983976663 20.41451473272458
K 24.370941732563093 14.910158827920846 21.639397775203765
K 19.41956859465703 10.330089060483399 17.60123343730415
K 17.127920211051194 17.456291089372286 17.844024650390782
K 24.259035267247846 18.197040741198073 18.63813996343403
K 19.27896736687993 24.23439714068819 18.869996634828865
K 20.280176225872804 19.987524276835114 19.471928844496873
K 15.829204512895569 21.2554314085764 19.56922935248936
K 11.343075126527136 20.93632138457076 19.884164800546795
K 13.30823833164354 17.18951459260417 19.958059314308432
K 20.574728539083356 15.471033164279401 19.694642343799647
K 23.67642360080632 22.271290894734488 20.68493047141137
K 16.55881976756459 13.458998274921264 19.93097549111534
K 21.81832036226748 11.531598912348745 20.95010191373517
K 15.431395492110731 24.804621902819395 21.75296217687819
K 17.4270957052206 17.787636601525058 22.027937245380397
K 10.778927250953789 18.07256687387931 23.608892480291086
K 18.892611260604134 22.094293345787904 23.074001022345556
K 21.844289236571726 18.53746587642778 23.19545872474552
K 14.465764481676553 20.608350086631457 23.63672954897542
K 14.348107649658976 15.319682465703556 23.74075346745799
K 19.37480518257878 14.413855098425241 23.85917788655813
K 18.15244667497668 18.61595878051099 26.05661050416753
