49
Energy = -41.26113882 eV
K 14.898338316917513 14.207826064894958 8.671435963506518
K 12.464048070780613 18.045438096715234 9.665617685201394
K 15.234003844587914 21.726791553126912 10.305336158945384
K 18.266402773995196 11.281796033052112 10.40391132389513
K 16.66207787504857 17.50636303224568 11.283422432746585
K 13.84652937002443 10.202707084463073 10.425865190373013
K 11.196646970407166 13.872470546299926 11.258392563974345
K 18.836235971397496 23.36302140597581 13.024431350595448
K 8.75699740215792 17.6354577276913 12.428581314257167
K 11.5541899541432 21.294785225421766 12.877268765834621
K 14.547761595348957 24.728152952008813 13.576605278351483
K 19.944034176360894 14.54250939183232 13.036564009160612
K 15.389968955921718 13.41732755529909 12.979912699100158
K 20.156149222340115 19.17549722697682 14.053624677490946
K 12.815157995395852 17.103219082685165 13.984012138904907
K 15.727097361802153 20.62451982360696 14.540911702146111
K 21.068417153831586 10.378223022652083 14.092213141022699
K 16.598044092504285 9.264835198890802 14.042083464876017
K 24.002478335756937 13.75599320852307 14.956864635086639
K 12.172722783419673 10.773878801641597 14.616313418419475
K 24.237495866193516 18.62857229172776 16.011371031689322
K 16.941899040292935 16.550569622100685 15.612699763213373
K 21.670206842701155 22.35615564629764 16.710938207199124
K 9.562519120310249 14.468185897151118 15.559706445092377
K 18.437942238528493 19.67980642867399 18.36612980426972
K 18.085998906360455 12.434583935674336 16.772655976760227
K 9.798946438096566 19.145759275826773 16.59192610075557
K 13.737100317640975 13.964855994780722 17.274714266370232
K 19.19188077760768 8.327319548928466 17.856690045304802
K 14.872357765744033 9.778871300940285 18.38239560794131
K 20.98820135158397 15.953140025319517 17.360162479048203
K 10.572812472829758 11.460232095087807 18.820442303819565
K 12.770393919318236 22.63787677200082 17.204048156637512
K 22.14981545222792 11.737281167152016 18.533484697430357
K 13.962230504525202 18.50219585362466 18.268482371697278
K 17.317770852434492 23.81246602140371 17.206432206492494
K 19.915495579793877 22.814446079572964 21.025615733433984
K 10.705257675326719 15.859557026093027 20.24416808060511
K 24.931356022581408 15.376472610215206 19.115659298648904
K 17.128234808083352 15.586849787959425 19.987135622699338
K 18.301101020735253 11.348436698777247 21.12924135724211
K 13.832652859429327 12.955614146105447 21.835940630179714
K 11.026773871906517 20.43736254689575 20.785560517794472
K 22.507540809528724 19.172283298386866 20.148139106863646
K 21.187091274958842 14.98942288673559 21.699510930293915
K 15.465110953605967 21.701229270726312 21.012471203948046
K 14.067210656598652 17.516349806110803 22.8359596416951
K 18.665019365481687 18.80794096105507 22.787080495870395
K 17.381295343410642 14.644364300651109 24.18688433309412
