49
Energy = -41.06507155 eV
K 14.171296532824547 0.9321846640436193 16.186355664797436
K 12.856569578609436 20.732383338196673 17.833656323353
K 14.862175374968022 -0.21451202479966952 20.85608747204536
K 12.819579762193094 19.75350475287598 22.45826363808702
K 11.13025888206403 16.793415953887454 18.915061253637454
K 13.023202569279826 17.480693531323713 14.55308851978789
K 17.439955800767798 17.67958745019077 15.663510579112403
K 17.519506620319312 1.4876941425895347 13.080155057863564
K 15.28256299823392 21.22027044353643 13.422772767931198
K 17.915538876382765 2.6368591652233113 17.886452939124403
K 12.643378910016407 20.451182149605305 3.383173212346265
K 17.220030680559706 21.670251585986847 17.790528279662386
K 16.01703572884573 22.329295696653045 1.4056666564029212
K 13.398185703602026 14.520369390509202 21.980629154434205
K 21.612143544495837 0.7443106130341921 11.011441373060855
K 15.655131149383624 17.532639400976542 19.700421882786177
K 16.007589160764876 14.336111225835907 13.032812535424064
K 15.282215110844156 17.521809210052947 1.510530497297599
K 18.093043002854866 20.093679572652476 22.171745829053368
K 17.139273746761617 20.058724370370363 5.395130765582192
K 18.233159974253812 21.646481082684613 9.654786593456802
K 14.933307853373849 18.255493679002054 10.042881060005996
K 14.254704590315729 13.85932053037814 17.272831392902226
K 21.566248249710576 2.282875961776728 15.282494044731658
K 19.002760944311248 17.61771694555973 11.537879963024826
K 19.053823162185207 0.735035219606267 21.91234495545789
K 16.0398566999634 10.817755003952648 20.477821401584173
K 17.473015228812358 10.644683296380684 16.024393638537195
K 20.475271452216262 22.326676692175003 1.8578916807670325
K 19.72792117387388 17.877137495862172 1.894351916428449
K 17.609773443870566 14.554631890894894 23.088472632787546
K 18.69831037985776 14.164388539421005 18.769463615112812
K 22.701886302237305 20.31157240991043 10.618829464416725
K 19.74858247900189 21.664520315763586 14.097349695071866
K 20.458688809824555 18.270807748984144 18.963619082776244
K 20.297218608896202 14.15740096311453 14.552515654061537
K 0.3712025567067628 22.421385245824485 14.506159003686207
K 21.440067600604127 22.687078983553675 18.286505495783217
K 18.987604257894617 7.081561881901574 18.983603717808442
K 23.474058994936016 0.19213149624088163 21.973840407450076
K 22.721844701970177 19.742826865072505 22.545866222643518
K 21.79595756951115 15.282872445248325 22.304554677031383
K 20.26286545532626 10.827826792683258 21.940161249108435
K 22.340893551637176 18.268716159998228 14.867336490378397
K 23.45107568642446 15.052684043640111 17.86826332763598
K 21.610719464755036 10.780017808990506 17.61504218908878
K 1.0990071044955083 19.758189411448512 18.42682407883131
K 2.219283639264245 16.390807727882088 21.24185185010564
K 0.7586585240178125 11.94574928432966 20.86893486269559
