5
Energy = -2.6472771 eV
K 9.695586469655643 9.132969209913245 5.591937442012933
K 8.120645099898844 8.799451646711228 12.163501132824363
K 7.034681208496573 10.871629913398868 8.511704659754423
K 11.480421529649606 9.236840594873385 9.551623389362021
K 7.9870869180307835 6.2775298608350845 8.499654601777827
