5
Energy = -2.79594743 eV
K 14.800575755923536 9.383450528036462 10.717404826263563
K 11.83431349352413 11.497029627132907 13.148600389399228
K 15.052893544506388 13.630925497042691 10.759832158620158
K 9.351596382832204 14.444056705252027 15.170180651082418
K 13.508614924509905 15.485090190641865 14.462677016070785
