5
Energy = -2.60115641 eV
K 11.734239254704786 0.7970375057645408 13.10493364740069
K 0.7142064363584933 0.8321417193773721 13.018266335186695
K 0.7737513128514881 11.859433765677808 13.116236615212571
K 11.81962828981325 11.833110807794325 13.117630986107754
K 13.947246529459228 14.056988992163948 1.1211998903558908
