5
Energy = -2.8410396 eV
K 11.369590186082721 17.8785516398763 14.434674414389125
K 15.259695876260121 16.170870670732455 15.081786929536637
K 15.283813313920824 11.728974587511914 14.106252317483158
K -0.06758567522583293 13.96907924123594 14.434831394175589
K 11.439089006432454 13.629267455997185 15.104737341056156
