50
Energy = -42.03233679 eV
K 14.9230076706394 19.391865631744697 8.188783607126183
K 18.4476304281452 16.733173877678635 9.153994176280671
K 14.050307320102013 15.191268775961605 9.587909993151
K 11.26843671035737 18.448559882091313 10.980359977627614
K 18.770890420305165 21.095667240796505 10.231103558015441
K 22.006795709103066 14.142558455368762 10.333285952690195
K 17.623209707737082 12.494511938124923 10.76349623629664
K 13.179591234813039 11.015997031532406 11.187877040564551
K 15.676896992585808 18.403567793687937 12.304105980735764
K 22.300549276179144 18.45399941923005 11.539346902274778
K 10.471166899321265 14.250470138395325 12.717605105223358
K 22.224722372743326 22.71901958464552 12.847280885655637
K 8.101139878949649 17.712612204552034 14.265163065272755
K 19.31015578839919 15.62424824097947 13.42606960824844
K 14.855677197748028 14.030142132331136 13.861068616883415
K 19.32806417137691 20.057580210028945 14.641870850315811
K 12.278717917608617 17.553359116167005 15.34107040760915
K 21.005780350198048 11.527168390832774 13.926149376814937
K 15.009411177602379 21.315776493479824 16.09093606587881
K 16.195962348970696 9.819884915453404 14.401831732251486
K 23.5991013073748 15.230826540941356 14.49051758938765
K 12.010839398631981 11.106220944042688 15.62746231222819
K 23.66329954581202 19.640782209040154 15.833910958625516
K 16.54428102268188 17.150454270019576 16.485785613270295
K 9.482798850906045 14.598233826532983 17.253673059879358
K 20.813378270663247 16.750573173690928 17.674064786587902
K 21.03465916647758 23.028396664740193 17.489495340604808
K 13.773916011252217 14.21217187858371 18.361616124073905
K 22.409002733842577 12.548035380860426 18.24224212865396
K 24.99832925686394 16.33379960537343 18.821039447518718
K 18.071505345060626 12.95582018022533 16.961493926320458
K 15.268254048246142 9.985348127715882 18.947299361803655
K 16.73091435454823 24.395181542841456 18.99042528692026
K 18.239338068740043 20.170448288424144 19.259480418078912
K 9.650503122294028 18.965241521837157 18.645542524295717
K 12.323215727122147 22.822159767755714 19.45720195670137
K 13.872373073786887 18.602817865318727 19.69793710053725
K 22.62014983361008 19.80403393050733 20.509721357616645
K 11.041858265256693 11.346491661942819 20.19697523556222
K 17.454225410347156 15.771997669685119 20.65073321372976
K 18.99654344296414 11.545854300050559 21.20439956068384
K 21.819933104444 15.311336298321416 21.872415460528206
K 19.91863005394857 23.108712862753 21.957817003542406
K 11.020670486208473 15.636891246008688 21.66977394666418
K 14.638385667115093 12.742541720778565 22.578043313732376
K 15.568638832944028 21.609652861207223 22.527071018995745
K 19.19712952905389 18.870642303259974 23.40547228808978
K 11.231081454210866 19.99256552545813 22.83458689770771
K 14.695028980585793 17.267881526104993 23.867220428416747
K 18.296742898455477 14.526295669231223 24.710114036660602
