50
Energy = -41.60893406 eV
K 17.05458795457781 9.087843810752549 15.931408628579758
K 12.993797581115945 11.13316687585832 14.876391155671596
K 20.746718133961526 11.67748422896538 14.5075748641357
K 20.18867800784475 15.623561085224143 12.545705508123964
K 12.414075673920431 14.492202790237567 11.584478882948028
K 16.286592474402983 9.843913932935571 20.40242350358394
K 12.404779648943947 12.244582419448724 19.257513075548285
K 15.578223285036566 21.107808962764324 8.514361934896492
K 16.64938631428752 17.442893400518585 14.835491104695144
K 19.088120509253596 19.780326511459467 11.216815365631549
K 16.082293551575773 21.905274846122325 13.90592354225554
K 3.112690214657474 21.399136967571692 19.253561292333597
K 20.416955055808632 10.36352637792474 18.583473825539755
K 12.617811034394283 15.568515758307747 15.9588414904843
K -0.03450338042319829 13.352863672494687 19.29784104427214
K 0.33752173154954507 14.892729734669269 14.940546500041098
K 19.27161054427606 13.693744157121195 21.31700907125439
K 16.445812231717735 13.246108740616188 17.492631358276828
K 11.638716103653662 16.69691790928408 20.384723682913446
K 20.219653709793885 15.405922316902377 17.25025094239748
K 16.534380840434387 13.006789598083706 12.991986496727561
K 22.841234570347662 15.973813422369098 22.999721897298777
K 17.963301271588897 16.319551080784308 0.9433429696624404
K -0.011483067847714244 18.37943483110673 12.22343696370694
K 13.47540230075742 17.748513630119206 0.7637393380908647
K 14.8247884432166 13.720813453294484 22.62467587994507
K 16.653185459156713 19.203129368929428 4.459770023831953
K 20.708546840289873 19.50195203199847 15.528314747372127
K 20.192620210766243 18.57887894168461 20.758087072835462
K 20.73731688661204 19.67808744512061 1.8482148319286715
K 13.013538114745458 18.92700238924852 12.38108137022773
K 15.962608216865592 17.119014314745666 19.839529245044208
K 0.23972115380311076 20.40409718538433 22.563679360022334
K 16.76012958490199 20.344810960476895 23.24277440323204
K 0.38103984417319575 17.89401389085587 18.427823859482775
K 16.147040368249904 16.71405511800817 9.985606266504012
K 17.44747858768851 21.29903335838403 18.525588180474333
K 12.787893477100274 21.12746357872331 21.316412544259304
K 13.520377105617248 22.09069355813645 2.22841892280856
K 1.1048461278136072 21.50426378667294 15.214776675918323
K 13.161165116145652 19.8765182181492 17.032464146354435
K 22.229264064312282 22.460270702585305 18.7631602404972
K 17.78474121523472 23.306711050198665 2.9526380078123426
K 20.06476392571406 23.203807233047062 22.61905602270321
K 18.50410818292521 0.3919666715514142 10.526495975635436
K 14.27165175473095 0.541654402062949 17.842472987316366
K 15.618513898218769 0.8089774767496172 22.35302068006315
K 22.630592869637393 22.62469141136584 11.355366239184807
K 18.553134761978775 1.8667576481966304 18.901426913836353
K 20.022271305330783 0.18202298827662589 14.879082032319646
