50
Energy = -40.33796456 eV
K 22.654095764078814 9.284869135543651 15.914636015910544
K 23.328875097293192 13.503758178229393 16.984465404290713
K 21.50209438413741 16.6657660529821 14.606963179816685
K 1.762966551087687 17.372405656403824 16.848737984441517
K 20.293873847764864 12.63608190226051 13.813725473366308
K 23.480942440395015 20.748200271710108 14.769286317760333
K 20.441066876094155 19.59684714940639 11.554946842288528
K 19.11868327322115 15.432748007908177 10.9280388150731
K 1.2747789128448248 21.274245107283082 19.0848138219882
K 20.49242009230752 0.10054061578037173 13.465077059279107
K 16.133686116512607 18.383184396106884 9.885467793724997
K 1.8927239295057756 17.357749974723298 21.07951606323265
K 16.69071822235043 21.781186246840974 12.41381055532499
K 20.924381002797244 10.753679045593907 19.71582772285815
K 22.16882911006344 14.595146860435099 21.42554316748737
K 18.392441442406927 9.663088222791695 16.2293307086917
K 19.115514633970133 14.324381964662507 17.839191664003113
K 16.810020921112088 2.591593418153658 13.190239442437067
K 21.514979890981362 18.223383732617496 18.848943940502892
K 21.477074219918087 0.12027501803635064 17.756217653998476
K 15.667742469884418 12.78802607385654 15.103242472562718
K 16.87774119384635 16.981580315882603 14.346304269137804
K 19.24516774757994 20.21995559605446 15.822387152316667
K 14.11391848431322 15.026079278747046 11.686311109489633
K 21.916024116982094 22.581530941893927 22.191055161146608
K 2.245283405440732 21.086038189108454 23.35164173376947
K 18.28499746553492 16.957261759326798 21.39004328923372
K 18.567443120188777 12.482042269656768 22.834127031648872
K 16.95793493078715 0.8699752552859897 17.15778283302366
K 13.38676057544113 23.49561835544716 14.51576890213413
K 16.251224525180056 11.146965247745532 19.530145508115663
K 19.735825689936693 15.598107087828197 1.8281945389377436
K 15.144202340810343 20.13740970234995 16.78570040032583
K 18.291739215576506 21.106772193549375 19.804352603318648
K 18.940053897222857 1.780170963211672 20.995401982280526
K 22.212172761663837 18.600333207327992 0.28292878080070116
K 12.952693335534613 19.211264961961295 13.046208475826317
K 11.927469566739864 15.646075764930647 15.359137045302358
K 12.44921643618371 12.682257844117428 18.378845444765624
K 15.287366608610462 16.05910253153605 18.247021304573313
K 14.510304000840781 14.406621040982598 22.172248003129525
K 15.1730131814633 0.18621052979344332 21.909779365895268
K 12.59097809864054 23.116709883274904 18.678388484445207
K 15.951586655058557 17.407464243726153 1.5894095688623628
K 18.25932422685382 20.995762632206098 0.5726802560423292
K 10.796765722982627 19.728699596999085 16.893416217391493
K 14.338266240385147 19.41989306801687 21.117571245948767
K 11.121205158520395 16.446099136913098 19.812955944915593
K 11.748511489993602 17.40040581378391 0.479316984023892
K 13.91709837096157 21.21741620250989 1.6358797304399255
