50
Energy = -42.02797358 eV
K 14.527390833152205 13.736856199274122 8.641934054844054
K 18.41570337610362 16.100857584742162 8.910628623462763
K 18.172425957635333 12.028401987439638 10.538182860733997
K 14.30895648036103 18.351056991921098 9.247660443508083
K 15.70467815071733 20.34621411105386 13.018006480122027
K 16.75656164615192 8.172667937580442 11.492636269148788
K 21.969188105504514 14.305866328867895 11.407662200581722
K 11.518639797030879 15.752924836993895 11.555416854192636
K 11.406642727936182 20.562983841393955 12.153893727017564
K 15.835118509867803 15.678621212279179 12.400186076115912
K 19.141681165741275 21.490252573225714 16.066778199676772
K 20.967898423691988 10.037584115975477 13.345910199991613
K 8.492896528836955 17.737212289186978 14.521005065208854
K 19.8163292689508 18.09471615946109 12.82543897789062
K 12.786213079769375 17.686652706039386 15.34523177876822
K 24.154082824499966 17.744304687698296 13.755213255646096
K 13.55221992455491 23.890328150053328 14.566875613186815
K 17.061607773642816 9.78768599707715 15.41713923295841
K 13.921905637018543 11.589097982691095 12.568116949160661
K 10.574660324049075 13.728609142013319 15.640149162298277
K 19.144492720555455 13.864275191353412 14.788079213957468
K 10.053793301657477 17.050909098915 18.744967627028853
K 23.51499368712556 13.726061574438887 15.625989424415621
K 17.055889685311456 17.586052347927062 16.223557689910137
K 10.564878018435971 21.211253083958706 16.763885108901448
K 23.52455491794035 21.110274490801487 16.901591480582
K 14.860133184726509 13.675990556407761 16.50126971381076
K 16.95723810529087 25.095348081779854 17.791156893565304
K 21.265435539860825 17.388244243748577 17.088653998605928
K 12.86979914245564 9.773909245110664 16.609915005346217
K 25.550138360935343 17.184398195173827 18.031664758719074
K 14.911768694609641 21.18030582544094 17.71120620015251
K 20.492768156159045 11.087046671631015 17.999777971288506
K 12.70124011025866 24.68225385732625 19.150102532700412
K 20.334420807720907 23.281253101273588 20.073368965778517
K 18.294149940794146 14.727145183312553 19.335322172128173
K 18.176398276987463 19.422425927657233 20.153102005388263
K 15.95124465235276 10.66968124132843 19.89665705968165
K 14.349133446064942 17.007212833739743 19.698501442154416
K 22.627592994317343 14.579049623643256 20.260915702154403
K 22.544489484128327 19.226984238344208 20.936188503458965
K 12.045065961656249 12.973757866820558 19.993106857583655
K 16.01582884857426 23.138613201083736 21.875209279590436
K 12.200059837108789 20.672490249528266 21.181822470889042
K 19.623785430872747 11.961172856532016 22.39366099341523
K 19.44335240538732 16.572421090505483 23.26501527148031
K 15.454571018947952 13.97944641471693 22.96960738137108
K 19.404276910879755 21.13056093272698 24.03295442557603
K 15.509363410420196 18.942489079512054 23.750041648600714
K 11.71008001555331 16.511816462599047 23.07037977955678
