50
Energy = -41.95690916 eV
K 16.788905183973338 18.584077754157693 9.295134589576332
K 14.956519601860073 14.485470568625852 8.148389457653014
K 18.498325984294258 22.108625959668704 11.180854105162814
K 19.1404192602739 14.612994697430672 9.996253356602535
K 21.921500264382434 19.026730656906167 10.726205994010364
K 12.4026801658719 17.7303205026859 10.22240315000935
K 11.995348865515181 13.158513950068011 11.468944219525682
K 15.51744719048786 15.533686742684205 12.219826309650712
K 16.13216414245825 11.270535773914977 11.254968205891853
K 14.088960870407064 22.656150279873863 10.530843056271554
K 21.097034695454244 10.630712366496239 12.988353787963309
K 21.01469423394634 22.090374853445297 14.673678608222742
K 22.574466482519046 14.905911743685975 12.553160049477514
K 23.296875301516646 18.28542167955288 15.453982305274883
K 14.365678091781822 12.48901481380684 15.437622082919352
K 11.82324203129383 16.510996087395554 14.664152700263127
K 15.065070045500237 19.897742942427215 13.471975017189536
K 18.72010344430159 13.472134954638385 14.78297571661881
K 19.15448841467885 17.967242888812574 13.58318236155814
K 12.723586952824757 8.899192056759892 14.143750140933097
K 17.17591163489384 8.850753915485068 14.715543785757244
K 12.200100620312426 22.93822916041946 14.826148136740574
K 15.946111716004536 16.58814799989015 16.3761940056895
K 19.820205334884125 10.142051882906467 17.858699987283
K 16.55488235047445 24.22172246934 14.391084445344903
K 17.65193206588556 20.6492585957483 17.115419333974362
K 10.971271591678342 11.18628958480085 17.845799154886617
K 22.821264764299574 13.330582012340436 16.781065962090274
K 13.155068955483973 19.68950680484742 17.819906121536956
K 14.962708516296216 8.99479586956742 18.413398098637632
K 19.990597435753983 16.63276136678392 18.09827134163284
K 14.797293217060012 23.806672305170853 18.624301638818444
K 12.708096049870893 15.181682401863537 19.01230710881928
K 19.261467798725835 24.560316101528425 18.00833358448728
K 16.888412481748745 13.161834182763327 19.09834849385671
K 10.457742685064193 22.707636811489824 19.27253730624898
K 21.75075608804105 20.764051148117513 18.96055927235007
K 9.908346559001183 18.37690836085875 20.783322473547067
K 24.035102076958562 16.665965825282225 19.79220500332222
K 16.31913057257139 17.65495911879253 20.579317640714567
K 20.981262973136083 13.218635879972506 20.97475239193324
K 9.518988942263633 13.847229833658531 21.54947756239991
K 13.531840281220163 11.744722535436068 21.77919405397589
K 17.752222379560855 9.967214103326151 21.86132721408191
K 17.872001590072582 21.73436781953382 21.435658775106543
K 13.43459451114016 20.82458751093674 22.096825047241126
K 20.39096812036392 17.718334643019606 22.380546857013975
K 12.938651787845362 16.224118999740337 23.30498115200741
K 17.090268767994687 14.293315177291618 23.399444606061014
K 16.556882772543727 18.729092170542547 24.769970094156857
