50
Energy = -40.19689432 eV
K 16.169331627188186 20.99303815876037 9.301555639220709
K 20.23854327871565 17.055914422784284 10.516882616551804
K 15.620969648524826 16.80585199994667 10.082283480966106
K 22.846667909188515 14.38467559896379 13.530941683548315
K 18.259290338232063 13.23930624253877 11.906790892290415
K 13.585658236617347 12.808438566353113 11.189588233048445
K 20.384187758290537 21.76764023567971 10.277807787555831
K 13.663444102439161 20.465092864689545 13.45767443943877
K 22.725997328310747 19.444891741174445 13.305440611459838
K 16.838699908714727 24.24680156722208 12.15902350430203
K 11.371810638042469 16.764561968292195 11.851590884540217
K 17.93216628985304 19.482866054781518 13.116902953079093
K 23.87449462003796 21.90133923607112 17.133096877561307
K 19.233880013118593 15.556279412836203 15.390191087009521
K 14.933249181279775 15.642481347209426 14.067713727105666
K 20.111250579740968 10.732513599282706 15.426941725907975
K 15.499633013862445 11.31351580770995 15.166858894822662
K 12.939522486529604 21.50168819547957 18.20355649309877
K 20.739921353077065 23.54867180724949 14.349320609091466
K 22.737578344851993 12.990994772797333 18.316378235791785
K 11.265928051055667 13.011073659133068 15.22645842034327
K 20.152963838263236 19.8258631674521 16.910215047218735
K 13.565913707565537 25.04250215770594 15.300018301053544
K 11.333638320314995 17.449243244849928 16.353183559083035
K 17.770990008209196 26.611951172163575 15.97502135514966
K 16.746136209952677 22.438386882394276 16.24071147537724
K 15.57470027972768 24.903553368044438 19.635405437006497
K 15.961247984244723 18.131089577038956 17.20571870890239
K 18.01784145256625 12.512826798019109 18.665496834933638
K 23.80859898636118 17.235700113402608 17.26100914599942
K 14.117209048935143 14.408527989809164 18.24452371632299
K 16.947365462872153 8.281361094082888 18.217309898052143
K 13.148443175771305 10.489522812274236 19.15488045881934
K 10.024800606562758 14.072814822621458 19.449468657155744
K 20.01316865780972 16.464302044676252 19.554014967756892
K 19.934507234540806 23.814393978163356 19.016378663215207
K 20.721556825031495 9.349977972300783 20.101425912788667
K 12.81171077223821 17.825387265195033 20.860689025724792
K 17.157758790771215 20.11396569786762 20.57250689997257
K 21.924926506429657 20.211865985736395 21.017290307458474
K 13.821156668472792 22.05038069857066 22.705622043957028
K 23.766783061673785 15.997023410283909 21.629780358990246
K 16.52024578639809 15.411931605134383 21.601647791977985
K 16.56206187944773 10.491578865270158 22.322450316661644
K 12.976218687650407 13.415499308678001 22.879271194063833
K 20.314021990805703 13.024507917922637 22.577886438036636
K 18.516159424899904 22.274052193220925 23.72314420369383
K 19.753805410318133 17.497068683078588 23.861282824568963
K 15.440450515652278 18.297620142051603 24.62522706575145
K 16.75007745059841 13.826147224792976 25.48810404532972
