51
Energy = -41.37139632 eV
K 18.42371048927088 16.996748188273596 4.078706752716294
K 16.45019680841418 19.647672723711782 1.245466098344773
K 14.322162059884661 22.58500351033857 24.598943459644325
K 20.874338966695078 19.867845687481378 1.8247420785131605
K 12.264281397357871 0.2629886770877111 22.617942599742353
K 18.706256663479497 22.61082601396116 24.797128494133553
K 16.69149238323296 0.19642703968028402 22.6939400721601
K 23.22183728477983 22.63785958922816 25.038620539358217
K 16.43362972510195 15.362901496650336 0.26867301296181056
K 20.868193043620124 15.613466597272765 0.7426261726355643
K 21.02204203386639 0.17412399434933204 23.065193585474653
K 13.9615816237177 18.4141519136868 23.396321775515926
K 12.188486314825669 21.783988180036566 20.703377848747593
K 18.633360609636675 18.08717539829793 23.124862847845318
K 23.080555103281565 18.41466169436977 23.813588343737027
K 14.53090466485054 25.16495749571286 18.959512284411794
K 16.546197035084713 21.354457384859252 20.799266897168486
K 0.9603634522265371 20.852660601513303 22.760634029636844
K 23.790481566416798 13.863759032979717 23.839673451626464
K 20.86096131382618 21.561606019183916 21.165273217895933
K 15.252041589063806 14.799535861498375 21.4842232318834
K 19.144974251587424 25.246969963618582 19.041994448264752
K 18.988257035355346 13.27335533464517 23.168442321188564
K 13.262633883373313 17.949623884125792 19.044165980581116
K 24.508536936392886 24.559882370743324 21.12331053946951
K 17.80968367757077 17.498038557928144 18.834015634633946
K 20.860998281959453 0.432839107781668 15.180013570643673
K 1.4347382494807637 22.33783679713254 18.498018200850883
K 18.587437279663394 21.350351272971626 16.87870785929764
K 0.843275140030452 16.48406155346264 21.765228481056837
K 16.608820982458326 25.00126388081698 15.240725480291482
K 14.09126210207475 21.53730312077879 16.59639821376016
K 22.04301006076332 11.496188742109712 20.707363535695325
K 24.143329734466803 19.49214804185068 19.575838547296286
K 21.6671387807293 15.96061746333373 20.38551489569178
K 14.904310257471812 14.458080498907437 17.078145465187458
K 18.34156902513587 12.887469792341793 18.927909292751277
K 22.799905437083787 23.032898562178886 17.47369729291311
K 21.40026789714067 18.19362262501877 16.57764252032532
K 21.437931518915303 21.975673582845467 13.612967071554264
K 16.82622299487875 21.48171543686233 12.789133619308439
K 18.899563641453476 25.13241056098038 11.433903944756477
K 18.80901652994614 14.838019942534627 14.914884799030952
K 25.560263080383876 15.97791772577923 17.50805300905727
K 15.570817528145936 17.94769702975294 14.827411283755929
K 22.337340212570783 13.296971772209881 16.85454902250515
K 25.454363356253012 19.726698787366907 15.199519642406647
K 23.860956053580573 19.44948047734428 11.12006651189088
K 23.27317639196988 15.863194918712756 13.568576902368138
K 19.474682972027974 18.110006600061812 12.38328219583489
K 20.19262361472175 21.27749737029582 9.513099955745774
