51
Energy = -42.79156784 eV
K 13.825961684921973 15.472300711244232 8.158722077068665
K 18.30773018547632 15.521378530002028 9.349630911345626
K 15.957184276406968 19.459790729216785 9.065943453249206
K 15.512459536927667 12.136398531563929 10.765037752012152
K 22.773531582428586 15.411889138187984 10.687722376334834
K 19.99098143645353 12.066791093572695 12.161633441404579
K 11.184352401700666 14.048025548205068 11.664783825817802
K 20.42563707706843 19.422175162785056 10.40262255361831
K 11.445743969229648 18.506567926734732 10.581543374836219
K 21.212307509499677 22.49040461851295 13.837725819673215
K 16.8610126749168 8.780153320558915 13.836224165086822
K 15.027703656474253 16.394393711843996 12.222758683400958
K 13.439466026405478 22.4053193908985 11.615256528182579
K 12.902347940682045 10.802109724695683 14.251430024931034
K 19.608445745588615 16.38182659495382 13.491576224492825
K 17.16770064574515 20.45245112305325 13.18776458587318
K 8.906606636138106 17.001610324603707 14.278725331664976
K 9.207901006324025 21.374833563880244 13.16969118382312
K 8.906026101484814 12.404626244509512 15.566530017682862
K 16.653168697001117 13.108872828381607 14.969397537319946
K 23.59245616187753 18.532611940941127 13.894060739333282
K 23.21966290495434 13.959910812466415 14.951083337991747
K 24.041721664762086 21.582683128592805 17.22218447250216
K 12.493913058429762 14.986658696865963 15.91931795094845
K 12.728003249762837 19.4847024396638 14.78337100274353
K 20.20554758988378 19.48509374346594 16.796489686046154
K 16.289482932826253 17.322027307850046 16.308818081836268
K 11.501964742921984 11.958417802367437 19.173339681404208
K 20.14293944830697 23.683415297899643 18.16869118751967
K 11.599019406561936 8.104663094444964 17.185594138803555
K 20.116305582449883 10.682017075225692 16.569572913671134
K 15.999372234960441 21.588959090571947 17.531306977313417
K 23.811399175178373 17.152224886814594 18.209711217669213
K 19.850836470563877 14.973865539903395 17.833238688257637
K 9.15413609277931 20.05627046421282 17.585770983145782
K 15.671322118508005 9.841049021544094 18.07704808229872
K 23.25904563060095 12.755914843388213 19.383281280312403
K 13.041921791347495 18.276507404344457 19.197247372810274
K 21.66116827600744 20.187188960202146 20.935162964623558
K 9.144853242740876 15.752011762468715 18.84207349975745
K 15.481188272771675 14.219940459233674 19.38287242590227
K 17.6124221213312 18.072418422203825 20.438920121979674
K 12.296806490335703 15.177942756903978 22.32883055724515
K 14.420939976094784 19.127348527077903 23.307075031959453
K 17.51343746689871 22.242771400035444 21.70446229867319
K 18.941183356470273 11.79261102945176 20.942620073218517
K 21.115224130689814 15.744874920244616 22.087205956771175
K 9.86554239688776 18.965631215931477 22.01248940377487
K 14.656088545919454 11.203887585316425 22.35732862134547
K 16.796079596196417 14.97276860166056 23.609626295495076
K 18.937928084990155 18.949873956185524 24.474666091710446
