51
Energy = -42.23638266 eV
K 13.606805307428901 23.95489339282924 18.714540791599813
K 23.934353459455377 18.394870869810404 20.2356330266504
K 20.779851736277703 21.523479900917614 21.452335911360706
K 19.833979021927245 22.69722648290211 13.615840496960837
K 16.589658229963824 21.660328966030487 10.563599359677642
K 18.328770038971154 24.1364071959838 17.802694203551003
K 18.12466551409791 14.884482151085782 24.466482763307155
K 22.826204943130474 21.52477209440939 16.94418016873102
K 8.131739221770724 16.527215822774615 19.167152917525016
K 21.56834998220995 18.444474931694376 13.787692633473469
K 16.50505474087134 12.501355352526632 11.425603714022039
K 12.085659285576554 14.647070385694242 11.523874814928195
K 21.938642115578126 17.91469465386126 24.417203392810688
K 12.41332825369061 15.723960237426938 18.951258582880612
K 16.5156855564651 16.824643788502588 10.43228555020492
K 25.547015229501774 18.14293628901901 15.561116574395882
K 13.008077781934915 20.64651401476256 23.907401862198135
K 13.870099379193963 13.366568979765356 22.829966828503704
K 24.5970020181709 17.481991839933997 10.842611023944725
K 14.138911053907837 16.724734348954616 25.952810232651288
K 15.0436645348568 17.424009831219482 21.76610236511753
K 13.211152217582088 19.34016750948928 12.55918159778083
K 17.623930142365776 19.561411897421667 24.771799465238193
K 18.923118732990886 19.903821709589685 17.624749629587562
K 19.01502550602643 14.85124589049471 14.185632020765514
K 9.886038508670625 12.673234313542832 20.71284602308386
K 20.589050321031515 19.713044224952455 9.880594875381664
K 10.104111034943033 13.298582885586073 16.127831122559183
K 13.243582255405215 10.848281053378313 13.926115681019196
K 22.180621799030035 14.147598237491701 21.591272842063987
K 19.34108608216611 17.444781110768556 21.1746893539197
K 24.092053488692418 21.5963660735663 12.453846524438491
K 15.343557211660128 23.218093692245382 14.593674889567707
K 16.951494261759162 15.796398873630887 17.992417380038017
K 17.21021370942012 11.28351107337515 15.90097528672059
K 21.485983046384888 16.274322397115316 17.515411294150788
K 14.408745629169696 19.5200777851844 17.208381871041233
K 11.049239478060581 22.06611899488172 15.638597233124964
K 25.298263830371784 14.365723428313197 18.221506647460387
K 13.755573985538463 11.641086071974271 18.525814387494552
K 11.047011642404389 20.044651113626735 19.908037021814508
K 20.810767956043712 14.99531533860166 10.268823647138536
K 17.264480312036227 18.959481491114968 13.940281868217925
K 10.461791153844834 17.686640975883982 15.557831506112269
K 23.624320733418088 14.326313310280785 13.91423272253584
K 21.452300069573603 12.025992142758748 17.279691660702987
K 17.99511914606627 12.63132253207926 20.523536614288446
K 20.661546344430494 11.108536100197588 12.735218910280341
K 14.406374228133615 15.177322924154764 14.783021193391507
K 16.3044142165735 21.415433276032818 20.886939157762825
K 10.650826963436433 16.71780345437496 23.01597177003339
