51
Energy = -42.37940083 eV
K 12.914425314933718 16.750648879417813 0.5109799043772314
K 12.360136812851938 21.06332305419507 21.866619674469725
K 17.490586732928865 15.855462538009656 1.2556643269322512
K 12.023104616994411 1.4712929656166032 19.308216528718578
K 11.256946055920029 14.165208945140987 20.579166750644415
K 15.868815672726608 20.254341052689938 1.4718725964000967
K 10.739862350903842 21.66516855141512 16.20577775615539
K 22.36927942422612 15.084787272191889 0.6837821670899841
K 11.653063101896365 18.062742229887274 18.751947279264193
K 18.92896549912631 0.3304137720600641 1.7876703230145496
K 15.68115937524922 0.7033510126169317 21.848892274745257
K 15.696965282480928 13.094247766723099 20.987205871134947
K 19.31437018360938 11.833338676818704 0.138125519558045
K 15.698950522491272 17.896207281682315 20.80798641572768
K 20.413439581615226 19.274830551654734 1.8091065199606033
K 15.850974370679952 4.007422966109953 18.898108408081153
K 14.887161852970944 21.150788047992343 17.883054436943695
K 0.34906978417059836 10.938195706737982 22.228497030722085
K 10.390992307940897 14.955314758982334 16.029230430361178
K 19.529457151930423 15.678454030152768 20.360527845885954
K 14.011526936550903 1.646504731080295 15.309711682657959
K 19.863418371403206 2.350500597830465 20.904032031070184
K 18.91317306547147 20.955140434277467 21.113027255606113
K 12.377826349730613 22.20664023680496 12.022372621173272
K 12.926860870928373 11.507645539251621 17.515154516890146
K 22.788784831108675 22.76256651475937 22.995917453136286
K 15.476659642882112 15.522257755143261 17.115998561443686
K 18.890712797116876 18.943728811873395 17.034202462632944
K 18.25068940215068 0.610313685188977 17.119397789395673
K 0.5468896735946748 14.52975735708636 19.44828151603075
K 22.917968272594496 18.65274332624843 21.16362942459388
K 13.160384155236935 18.20147841327769 14.177182835562844
K 20.347667387749937 14.592603990911435 15.845348878246385
K 16.566745063691982 21.43461776206724 13.64154595525111
K 20.349232502754003 11.273185856030668 19.12288033800874
K 13.895456927079916 13.468573582014798 13.46514644589215
K 17.107704313076194 11.307018744641884 16.08234782456592
K 22.385980773267715 22.407268364683585 18.514918994924216
K 17.479677221184463 16.915833296223855 13.081631903709354
K 15.073328141322504 19.26505888663799 9.83305690309067
K 1.4270705652283802 14.124264744434123 14.95221219266069
K 0.011976690010435893 18.18881679900093 16.73013006167151
K 18.13612177280515 12.475815685056082 11.800729216583123
K 21.1342681663255 21.647873303845603 14.20509475487892
K 1.3112069325665816 10.406319949020363 17.829424478313676
K 14.976244597339663 14.910167059101392 9.453643309772717
K 19.47961881245151 20.3492582342699 10.20665789818136
K 19.28911259285356 16.03444925633537 8.910643619394246
K 21.476906182372225 10.40839763893522 14.58391994541819
K 22.035583775207527 17.45817609081082 12.505009475755068
K 22.409800271840854 13.268869270720591 11.194367274180435
