51
Energy = -43.08765402 eV
K 15.289895743118821 15.075823331947598 8.008767686922967
K 15.95504843279949 19.3366629692532 9.76500473777519
K 19.58998502295129 16.42542732603295 9.631705632320397
K 11.943511003916566 16.805936894274964 10.828055381169372
K 18.117712120373334 12.078870922877753 10.095772626771623
K 13.052089782948531 12.319059881069048 11.174237896672132
K 20.10186366364524 20.707548819779188 11.557824030883541
K 23.71192424701653 17.86624192533456 11.536183453919422
K 12.432710330829318 21.163399940511653 12.664328874000336
K 16.017923697220912 15.484579779402594 12.381086622527327
K 8.727658664867105 18.642922875321897 13.800772726564984
K 22.232425574551 13.413366981503383 11.953346411535104
K 9.794004075876586 14.138093241230742 14.154505563770844
K 20.521001821792563 9.126581789171933 12.672662014359885
K 15.995618286191997 9.335268524154834 13.02739117703262
K 16.508171755201253 19.841938347229792 14.184505140127314
K 20.175532290583277 16.878649692378506 14.092834790230762
K 12.69095731444385 17.411379272073912 15.27991775439018
K 18.60771418350767 12.476833918099368 14.859664871498317
K 13.781870947232735 12.668419932467069 15.637779118114583
K 23.064281857806915 20.482221003324014 15.277158675300576
K 14.54682528719737 23.660098521233635 16.009715445259214
K 10.812349878226467 21.192592484458753 17.16398111169185
K 24.391537196452486 15.98032382177207 15.640722488231766
K 19.494074603867293 19.419196581447718 17.935315307214395
K 16.614317591500424 16.05027834186412 16.778738988343328
K 16.77774308970377 26.501429405746496 18.600090492272546
K 22.763495339627976 11.545498676084415 16.157830243123687
K 22.260676190622437 22.72070670067259 19.281668036922067
K 13.216339995073886 15.632015648549341 19.59289731233061
K 24.64419145780069 13.781594171072037 19.7373244143473
K 23.554166593337666 18.27290859803972 19.594172275343148
K 14.913104415948686 19.8675101884549 18.693182089842942
K 19.190702014739333 23.453334820443587 15.71929000347841
K 16.70814886575281 12.326686397500346 19.367387801977742
K 20.65743507020526 14.96000886234508 18.285173130290975
K 10.342797618086646 12.33502759656712 18.577789190450037
K 9.081995301096645 16.823978486604318 18.06784281579691
K 13.406739110545105 23.675483385217436 20.51205753174486
K 13.208857641159476 11.95747404251434 22.354417044218437
K 17.89350960358932 22.899538435417252 20.482865302076814
K 17.457868064262676 16.784498777955534 21.22369855972985
K 20.8803583567963 11.33305856623977 20.8688795672415
K 20.468178507068558 19.945761922549806 22.59938067737969
K 21.538759405306447 15.399160766424934 22.769854170604667
K 9.714949329741184 14.954091206027325 22.281178477615935
K 11.38910136940957 19.357076271816943 21.5768547550931
K 17.50514572539515 13.039926776823663 23.829484705205918
K 15.591875765770029 20.45749491413204 23.432678380814625
K 18.223801225189337 17.27057720491321 25.606958887068163
K 13.870884564095894 16.155271054116206 24.106895602845647
