51
Energy = -43.12545861 eV
K 19.871585301536932 3.347233308610857 18.032098728631723
K 19.539335251932044 0.6955453660553843 13.49622853939695
K 1.1134172916342107 20.265199084244045 16.133433730234287
K 21.77058311670826 20.27117190199045 13.130464290967414
K 21.085861030981302 16.577269111526263 10.438753664582801
K 19.529067289638828 21.799030548689043 9.405056192263569
K 21.75019677745222 23.2457816959772 17.07574174360991
K -0.007301545823894464 16.216589243750242 14.238406367110919
K 16.634571856424262 0.30655363296848287 17.154542372654014
K 1.3641816788190566 16.50062167438021 18.618964576918877
K -0.18740446252659526 21.02677663035143 20.534007061694595
K 19.888918511872937 5.530626221915625 22.140149881367694
K 15.76703598807441 22.833699978047882 11.954472420294971
K 18.942903614599715 21.809154748224717 20.271928051353914
K 15.477697509412002 20.956376951120546 7.553988246256795
K 18.014291787667965 20.642010654378524 15.232101677955669
K 21.399781997464597 12.736366241169293 12.775306938097177
K 21.034065938203774 18.4574539667994 17.99012459153733
K 19.512359388112785 16.265905852270365 14.645266686423282
K 17.29994484798205 1.7489708185088806 21.727697628480957
K 22.4689865378909 16.876082419952784 21.84323776368178
K 21.800538961841173 13.670333374701706 17.610775346511975
K 17.259772545590728 18.466737894070015 11.152584590501267
K 0.006275953819475907 12.394307205945253 21.052410972464465
K 21.791505567718282 1.0555457266472488 21.658511395500163
K 12.91590573223295 19.17256567711143 11.641705523742035
K 18.213390017903983 11.478480758941833 15.779587109186213
K 21.038422424447322 21.01990427762427 0.1856779986653214
K 19.504571671087504 1.0565495365687756 1.6375542457584769
K 16.937587302416294 13.890600887286363 11.98199735586826
K 13.319537382752337 21.364995208405702 15.742614927248265
K 13.99523410339735 22.70907786561172 20.62260108463827
K 15.768506918612747 19.131120785522825 18.819364689799787
K 15.21164807341393 16.96011042403554 15.015488122146499
K 18.07212381539768 17.801990623335268 22.360815322226568
K 16.51859460217627 21.74696992670205 0.37726602690743244
K 20.266056011132083 9.52931713755712 19.55807290193462
K 19.841157685763104 13.34743492811215 22.259389322000292
K 17.65046882382953 15.031981176058519 18.73847275605932
K 20.591320346010644 16.863320219930714 1.9380931832760588
K 13.91282675667038 12.894091757304459 15.793409723864977
K 18.79147252489424 21.014750823259234 4.383589722434673
K 10.91364920320324 17.215223251792928 15.41080780083283
K 11.033830932818836 19.51447294747873 19.24845020578069
K 13.551604871317203 18.45598964297285 22.895273671202453
K 13.122247724028007 15.388785795117961 19.346503658715836
K 16.16000378095457 17.625846183983427 2.635383836443011
K 18.01652426113981 9.527896062715616 23.642395928657738
K 15.416683532202853 14.195736771085967 23.160967872721354
K 15.848337021458667 11.06956456181965 19.847223451041504
K 18.042751132039523 13.181782864152067 2.4746804444539006
