51
Energy = -42.43852232 eV
K 1.8232201561016061 13.636252389775752 15.128765520142833
K 22.157374845310407 10.319734230594428 16.44802696803226
K 0.7276650794428421 17.693840354071437 13.309476204398976
K 2.2255751566532602 17.330655081290665 17.739690178829193
K 18.455838661851576 10.47691936748342 14.0252575621619
K 1.824335603151511 21.3610609368606 15.8404653426667
K 20.670228447191 9.546069816460975 20.644424566302067
K 21.013470557441376 14.34872606000497 14.514378188097183
K 22.881660309299406 14.008046544896803 18.841603560029863
K 14.740291165484157 10.704733611571571 11.442425117798225
K 19.91618135729387 17.923059273443776 12.168318434380634
K 21.37408809784671 18.395498624069294 16.728353534168676
K 16.96641823585625 8.48653352387627 18.470802004645417
K 0.3715983354102245 16.96214934351136 22.146308938218787
K 17.32722541940298 14.32026818173712 11.627939943120527
K 21.8938747122132 21.763921631499198 12.929821952366126
K 22.154511139508013 12.94589033380076 23.159100976713486
K -0.009910173576668546 20.834674305294836 19.919758701039825
K 21.451882226430573 23.53477849673135 16.903854689782598
K 18.421429006293064 13.046382418563445 18.09847467608929
K 17.775310530888422 12.39332791304707 22.564476435222126
K 16.626948663081222 16.558850019832292 15.541045940520302
K 19.69615013315272 16.61482405730933 20.676346594598268
K 12.973831202627496 14.889608686010611 12.57913943928929
K 15.555871526851941 18.768191387501012 11.494036109697978
K 17.855173392984163 20.92167588904162 15.158143102728355
K 19.546514337176095 16.05514415909737 1.4517553525490774
K 14.745265936368906 11.98438658007836 15.742253477423901
K 21.231917033867596 20.30986392868128 -0.00587294780543918
K 18.697933650142243 20.96416280436169 19.65450623439003
K 21.01894231384186 0.9473684869504505 21.306168558632233
K 18.417109110746363 1.4779057971658283 13.69100971191885
K 14.358479935666793 22.887027826541658 13.28994807154205
K 12.381272408200196 19.024767699976163 14.591555200715183
K 12.157532759126166 15.495636896600223 17.131644095485353
K 14.150473855402671 12.563025088300261 20.216017528859737
K 18.447690327233605 0.3907543033248237 1.1061561374361741
K 15.330242730368346 17.217470467972493 19.841686224010278
K 17.672002391994553 1.8315818727179716 18.10975784325346
K 14.315857205549767 21.319340108918844 17.99973966618715
K 14.856316798308365 15.522300246231488 0.3378594573896184
K 16.91554094171889 19.57734603595293 0.00806066307572617
K 18.447940508254387 4.8082688563021465 21.52665578526468
K 15.50000072891566 0.02827426062559195 21.706743313058322
K 13.665186176093549 2.2211921448131027 16.458722876566323
K 10.351588373986292 22.890192934556207 15.859789168372016
K 10.01401832551955 19.526073605575178 18.80724074259495
K 11.070656413800132 15.861575588881335 21.403843826271327
K 14.145165586293624 4.078826575818824 20.55785370765553
K 12.594684701007033 19.999937952164625 22.46872726979465
K 11.230157150032435 0.3322174760905076 20.23563844468805
