51
Energy = -42.91039755 eV
K 4.803841790004112 14.652091869162733 13.943376144074243
K 2.7315340273722026 18.29793111657114 15.064826451533731
K 3.973112884492541 15.015047172577637 18.355237156153724
K 3.329937454929288 22.586839752879428 16.325200381665585
K 2.5693089852263453 19.360631464129234 19.402862589142575
K -0.010884307777599684 23.281791565214057 19.42215301008864
K 0.3893732215445201 15.245266348525098 21.114977539558897
K 1.130442894564723 11.292284560197796 19.41564459066511
K 22.291032195624737 19.521812689746188 21.829530493558394
K 21.634423813024185 16.125056563405682 1.4791276654313228
K 0.6576152385656323 13.583649763943132 15.615604096875606
K 22.70778262299584 16.795191194956566 12.842414220622175
K 22.356125020783082 20.914063117282236 15.802013569786922
K 22.957548327015285 1.6318496821593507 15.06375588092603
K 22.19011049325945 17.166658187958102 17.599744192312336
K 18.85658112505939 20.874977242667256 19.098600749390936
K 19.63020657820881 1.9765174959516687 18.335982010419784
K 20.88438828674821 12.234694962431632 22.806517434584794
K 20.438791981248237 12.781603649988737 18.449416994054992
K 19.047117403523526 16.46583380236959 20.705492884324936
K 20.92709362206114 20.706198259354235 11.57910729818381
K 19.905252237401267 -0.0404843523900952 22.612445256333586
K 18.486991449535772 19.258591497866828 0.9102289928004288
K 17.352221485650404 14.646910643765839 1.4372671512654411
K 20.400016406920955 11.019677712044714 14.26263037383786
K 16.41556779065397 2.727620322791414 21.613272375374272
K 16.47854713967377 12.636426206409729 20.930108700884407
K 19.054345466356384 15.029533227233289 15.027325233231888
K 18.41394219619958 -0.1258695159379936 14.491444032501203
K 15.484907382206988 21.83797794320828 22.332609975733014
K 18.105027583750292 19.06677168615386 15.200882828288943
K 14.85592017903907 17.254611993667133 22.15497243006612
K 18.742979116255146 16.52749712101666 10.7016348641624
K 15.252927755559273 0.3806405287376811 17.962656452696404
K 16.23569709922972 11.366005544125668 16.484661065306973
K 15.403465045030762 15.582475012950965 17.616838070439787
K 12.722177439039514 13.596246053753342 -0.1906415904094844
K 14.312921957897125 19.608354047646728 18.463624619937377
K 16.531177989949853 20.541699647287565 11.004022001320703
K 16.32680437624603 12.807014232732671 12.235722075480917
K 12.082509017152567 1.0580395836865244 21.086627786052855
K 14.77550072243016 16.889732123691513 13.204997577726871
K 12.188412908603473 12.112365689153835 19.031127731479145
K 11.151897829559134 20.16492158589569 21.97658101276758
K 13.904192763383767 21.276742916808203 14.458202353622234
K 11.04290733349165 16.40259163807866 19.58701976399999
K 12.303231137132661 13.53675540993521 14.807543437913047
K 10.402157696401527 21.81898108520934 17.75641148646187
K 10.850466303646071 17.913864938237044 15.399738310577984
K 6.813391275258522 18.690349106441875 17.471783920417618
K 8.264605853914414 14.035965050730956 16.87318415119186
