52
Energy = -43.68785275 eV
K 18.515534926101594 20.06444851807694 10.623825145594589
K 15.923043048492799 23.769936360731215 10.254322930362775
K 20.01064011352188 24.13421695999667 12.43666137925595
K 14.003612882641818 19.66745520642155 9.655787418579116
K 20.7815793076765 15.916512410015066 10.389101375977887
K 17.475355346588373 12.850606332363396 12.444330530548832
K 21.870611400773242 20.028131957672375 13.639245711044126
K 21.938361811613593 11.898309078040157 12.844011847454059
K 22.695173690674455 15.854299842943695 14.752637037941332
K 23.047743285688842 23.580115027394275 16.26611944554766
K 20.034998588846804 2.685175654840133 15.91975544205931
K 16.35593478671617 16.000094692586675 9.463985869740693
K 15.923995383828075 1.156744269924829 14.44962168600745
K 18.108183116401783 16.970773011834698 13.984639531266378
K 15.126978446001415 20.695492764809796 13.849143548357612
K -0.019475427959058267 19.293338716224724 17.727384342334048
K 19.68372629302093 12.856175861858457 16.573279265532612
K 18.536807971635582 22.05759369361657 16.17963442286813
K 15.236445351315767 13.065613606073434 16.33333580197669
K 13.63102383418372 16.314735532017167 13.292160348492775
K 24.187024475934443 11.889477463463018 16.989749494708583
K 19.683846571390244 18.1950207541985 17.749622937991116
K -1.6540618354635617 15.450454166370326 19.34003470174328
K 0.9990299073049606 22.683161760910387 20.435030723157332
K 14.02086523073919 22.68279328882167 17.760244825349087
K 21.900634700544472 1.7736130908036793 20.09043374418266
K 20.801748878746782 21.775827662120363 19.985786451963566
K 15.204737043437573 17.469631973619986 17.75244990451311
K 17.10608930195412 10.231836874409483 19.640854912422697
K 18.52899341725147 -0.06930682199363353 23.285302959499962
K 11.337332284561183 14.841712755187201 17.37737775863759
K 11.329866368772455 19.28059601085464 16.63433977663877
K 1.4858916656634855 13.295848170260328 21.181001558444446
K 17.403084455040446 1.1270291049538923 19.137264575101426
K 10.930444852340136 21.526454568971147 20.77629483060887
K 18.134553855784482 14.757233208868314 20.145220211663784
K 0.37153386136821864 18.22249937649586 22.318860086746888
K 16.399554098990457 20.47322720953572 20.877170660969508
K 20.033907046868933 18.162108265487262 22.48433842391145
K 13.987883269382309 13.267149601427716 20.802597216632375
K 21.44641037005428 11.181734975388412 20.737585398810992
K 21.92919302383396 14.390739807213821 23.848739477473785
K 22.32694390130496 21.95059573110629 -0.04386253734953374
K 12.075416709773942 17.405967391796004 21.116522333508836
K 17.90889625707489 20.388299931049833 1.5882297712019613
K 15.827602243027592 16.650900091478757 23.429734191551653
K 17.786978925922007 12.2579087321036 -0.428329310485809
K 14.126700985983662 0.03032039847079401 22.281055950251574
K 18.529903338632028 15.824505314493155 2.6176296543826707
K 22.27837369617944 18.168610994828487 2.3023230025432047
K 13.366848971916191 20.402736382436405 0.2916590900951969
K 18.88777726630888 18.51855865495232 6.261519806865425
