52
Energy = -43.34334267 eV
K 23.045015455630487 2.0390067578509727 17.5339496673142
K 21.094129795277833 2.7245796165357947 13.583436286143483
K 20.42860216897092 6.118618445468177 17.372961850296846
K 23.282599145820082 23.09517086533255 14.112339357755232
K 23.024550922073775 23.386214767962482 21.20824499418241
K 1.4132854671541868 21.947421849018948 17.729273316686644
K 20.021713907691453 2.615800798682245 20.80215043660635
K 23.032069128953747 20.383807897651213 0.567287843761001
K 20.434030646152163 22.390787445996587 17.675462607567052
K 2.1830969671207856 20.000554000902767 13.527871526663398
K 2.5793987454584384 17.36735443124494 17.025105608165827
K 0.321359785250246 18.879555448722392 20.763358488585283
K 19.612101545587063 23.35575373905029 0.053363407518707565
K 18.70846199628481 22.640314947150134 13.63774160910896
K 18.13026117655453 2.062600664558438 16.708414929710194
K 21.916869596263417 19.637507001139237 11.712621447086068
K 20.003525540984093 19.664563425124815 21.1527061714856
K 22.485152624541012 18.513560275281453 16.557965477489
K 19.263735549107608 18.485034035433596 1.7160494512877094
K 16.993772065941418 23.443624976271412 20.386595963121856
K 1.7753603299211593 13.161819270573044 15.836595464839274
K 16.939142944624447 21.516699780230027 3.833019480604622
K 21.545725160934456 15.925159688231243 23.03615773471957
K 23.383579848040444 14.701586661627521 19.195400022858355
K 0.386188311963097 16.087084509929824 12.648787879009474
K 16.630193745814893 16.842065905621762 22.238965044079155
K 18.858439176304202 17.77427155829995 14.323187588393402
K 21.498935953243606 13.954006703964726 15.139464071547799
K 20.388177412227368 15.451550273973734 10.739028326568505
K 22.976769152303486 10.19332477632272 17.75747124124496
K 14.78613129300424 23.00413802898969 16.39512330400732
K 15.121159317636788 17.05708926512481 2.6388077499557268
K 15.859157038366982 20.78789735834532 23.782304254348198
K 16.67470217752302 19.34850919524709 18.01919311896853
K 12.530391325751646 20.74993164075777 2.620184954875511
K 15.073475641133271 20.06502000727137 12.91985978530179
K 20.371906018865385 11.878715888627992 21.468471672456126
K 18.586760652855396 15.183661593794623 18.41384427707766
K 12.136892377193757 17.74085679347696 23.467149536082747
K 13.022455431156006 20.801503604922377 20.346193289218494
K 18.113456693345753 13.946346550982312 1.0600508322872966
K 15.888791516920815 16.216392454506767 10.65502016938958
K 17.497862890899547 12.911694778054075 13.573964096515908
K 18.53930739286874 10.533568010346134 17.408169151885417
K 14.881347277445462 16.198148361489825 15.159787291489668
K 11.744023551476277 19.29784146676062 16.240779648274046
K 13.271229646880867 16.18006669362758 19.32288409682687
K 15.880803461602456 12.514077950665007 21.166194187527804
K 11.561544462669366 17.30990482049778 12.094205353668215
K 14.344980047932703 12.192550153316501 16.95774057295469
K 13.03441081122786 12.906659128982332 12.474669700291825
K 10.599407159759897 14.792948972136527 15.836254638368885
