52
Energy = -40.19870857 eV
K 15.263225778109804 14.243972722143116 10.080783274365459
K 18.52148136334639 18.11807250423298 9.178638488272892
K 21.536872850304643 20.595176382043245 12.526250091216642
K 19.49072623369666 13.13673593048296 10.45308318441453
K 14.044713264892309 18.520577552854547 11.054594385495278
K 22.759789079254965 16.44310474994178 11.71786318869428
K 17.099799934697746 21.604044601338693 12.246412504629566
K 15.984502483752557 9.774784854536591 10.842863781203636
K 12.676659498471022 22.20325830586574 13.538453021462571
K 10.912018510322449 14.7975792048791 11.074229506395067
K 18.227148352734684 16.905155826511606 13.016528547439506
K 18.951227439382237 20.438681856075913 16.07411514320924
K 19.468954266658706 9.0035785814099 13.521736638385676
K 25.487157992644885 19.304944549880627 14.504897749558813
K 10.59105100500568 18.33929105772733 14.319705880508913
K 20.243119598662336 24.287883581210593 14.743370910664318
K 21.96090517026389 17.400276757460066 15.808709888166312
K 14.96521672846521 19.0579896478909 15.771346725364182
K 25.48242113167768 15.048365733949604 15.852803814104826
K 15.811172762949287 23.60091515857179 16.38192776285295
K 15.317382590388759 8.703174941230053 15.665195872740437
K 12.520186237435666 11.310389866183218 13.360672750561477
K 9.093699232053064 14.032501288424994 15.17366053399366
K 17.0552856961203 12.452474572697255 13.907216238019258
K 13.888624691139526 15.342262592078066 14.09882772810056
K 21.41572103039126 13.114975730013056 14.636176876660551
K 11.843802252797566 15.938915033587953 17.86225554016629
K 8.023253523845476 17.7192644262199 18.003314030065418
K 18.844510131694054 10.868737204415968 17.720887744199413
K 14.902361686837013 12.836354534206205 17.76593181134806
K 8.679252437498027 13.701555667222024 19.842406975186076
K 11.37846774423676 10.589005566473968 17.929718189027327
K 19.418622191461868 24.384728631182195 19.211730640173936
K 16.870636640496347 20.98392777182889 19.82537137003717
K 22.190545791332838 14.25351300108677 19.019168110684145
K 18.02406286517308 15.565969102323287 17.045516939588136
K 12.201131449526322 20.682385195830093 18.70107104747892
K 15.332427766586179 9.585323454101271 20.411922065768568
K 22.870168294441555 21.730526850233527 17.339413808579646
K 24.699685630093736 18.14520992613886 19.28638055292996
K 20.075315966164702 18.037356915449557 19.76181692191679
K 15.160726482961271 17.12970934864555 20.235303265052618
K 10.850551417226573 17.29113865738622 21.855120965853704
K 14.911193977074989 24.616394085383096 20.69859008831388
K 12.850980386217717 13.164729698032478 21.585859531021747
K 18.045398897125516 23.058839937393497 23.484934239688606
K 22.19792936874208 16.48710224265767 23.063100696064538
K 14.132474028350531 20.563701702675804 23.136728078658447
K 17.863240071967404 13.997037176351759 21.462145428034958
K 21.854833755769867 21.10887444159123 21.97798516934411
K 18.23669650984948 18.535434789023103 23.651189869489873
K 14.61303186506513 16.084460146281245 24.412436490203692
