52
Energy = -43.70374302 eV
K 1.839461025360952 21.724318380542048 17.94610586401705
K 1.0624711098864128 17.994990339282364 20.6116328076474
K 0.4056716065167447 17.970681862946744 15.807130777784302
K 23.527984674905227 1.8097289197968724 15.045261818282292
K 22.456194865672394 22.092967205086726 20.945345783914387
K 1.1676498921338336 21.740881406347363 13.435931406691509
K 23.506449882664935 14.27615599095473 18.4445661991337
K 22.673968995679974 10.430984548171857 20.681547526539998
K 23.94901884795988 14.2822125121708 23.4527559429477
K 0.7611585315740217 1.913370639662419 19.30041409856291
K 22.32261805518621 18.69773414426726 0.17781939683105039
K 22.786714825762928 2.0112492893657397 23.23750634850011
K 21.613350373204387 21.84195510749755 16.119435366585076
K 22.0818752221254 5.665783419830843 20.606777594428422
K 19.429113929212633 11.893984455772008 18.01543565159852
K 21.37932649397211 23.60825221967279 11.625610117634594
K 20.936204726385036 18.313670532094623 18.73325301154266
K 21.373505602263407 19.10510890335836 12.34739204544503
K 19.088290644161116 15.72752764386696 1.8604303372779358
K 20.504416458486734 15.492049163528938 15.0456638416737
K 18.147889783741157 0.3365654998890043 14.609323411767132
K 20.249009954505667 11.29558939935938 0.35003852081744147
K 20.38777461939722 2.053522056142364 18.390188151399098
K 20.233052715634454 14.968587269968609 21.582177206356313
K 18.248976568509764 22.242380635456946 19.15129335949148
K 18.398246563251888 8.232077841584012 20.958034118334133
K 17.043206066043066 15.710807458619037 18.69187948017436
K 19.84522780785435 22.85511567253234 0.5806115909147551
K 18.440623276439126 2.9848166701786294 22.3285708546415
K 15.703342672552226 1.8641383042036086 18.757810084608195
K 18.36404643066522 19.123399042839246 22.42424319420839
K 16.487533256675377 12.389471253785244 22.27372939478612
K 17.42907984721637 16.841806398380342 11.400035906614761
K 17.758867839398626 19.154710234087638 15.348307555817227
K 16.82590578997911 19.817906579374014 2.6515802420113617
K 15.02238855520798 16.469315847358757 23.52398188873816
K 17.643324132602036 21.377559049049072 10.868634197170794
K 16.370361085594258 13.589195503290915 14.640682449080028
K 12.835421196172808 14.555329724908958 20.05513271556352
K 14.894622515313772 19.440502369948728 19.759013561012974
K 14.58868074416837 22.295009939539078 16.113663450097217
K 15.726096889101381 23.220731177995063 22.834061274787018
K 14.99064683589676 10.883600934146878 18.352886365446643
K 12.032834193802326 22.852908471046767 19.846386864224204
K 16.511265708886704 18.71113379539959 7.2230026942342755
K 12.698244309360268 20.20803597864052 23.648811087374536
K 13.875853005198039 19.796975106035077 12.336806431285227
K 13.144272769789676 15.363650173379565 11.829477255011126
K 13.697867808382567 17.182414243236604 16.084386479146588
K 11.979507066336053 13.11809303483728 15.75236597861207
K 10.656720978232755 20.216162073377607 15.76581536281535
K 10.637157461815272 18.36700528100357 19.86658612072236
