52
Energy = -43.69045251 eV
K 21.41710330053239 12.652551710915246 23.81531249319612
K 21.387522555725006 23.747064313168888 19.523760014177636
K 13.677555156834037 12.588049743227323 15.623681761240691
K 13.088928972884107 21.53790194702294 20.189880768898064
K 12.639823817880536 12.03056736773586 20.126517834149467
K 21.485628710243542 17.062340629358655 25.524434994291802
K 19.003633213684523 15.529825993238514 11.751086363318583
K 15.672805498156466 14.589272089564833 19.265948948336902
K 21.07917540353865 19.64189204990302 10.86672196676319
K 9.61400955717607 17.737864374647828 12.30561479689799
K 11.892999806338713 16.882793573710202 20.006834705835697
K 12.736966778271343 19.214286466143637 24.273752969280583
K 19.1689004014184 17.132537745437066 18.759962474941737
K 16.8210290239221 18.884852311863117 9.731955601938463
K 19.618443761352516 20.13201865990781 22.161872564410032
K 15.814889115317133 18.599889466820983 21.29205213214332
K 10.739358437687999 19.97565778283886 16.391336534240097
K 24.149851074980074 18.78578916076971 14.034762189040448
K 23.456618061208154 21.105946364133985 23.182879214125265
K 15.982375692946599 14.51417118382668 8.824554063769606
K 12.545763921317997 17.517722238584735 9.13248180845197
K 17.31500908736335 21.7386048608868 13.194780991993882
K 20.36693504731629 16.258011355056333 7.803711230923857
K 22.51149342721798 15.324537481389612 16.240203674545672
K 20.384604583519533 12.76018537437003 19.260228458861256
K 11.814816916772457 13.654302099785696 11.563425485333402
K 20.03473388299751 24.541780104085646 23.653006940753905
K 18.097094204471833 13.936206740563371 26.60421254093447
K 16.90988412540947 18.145809661180287 25.78403693073599
K 14.83426849078055 16.345090793662184 12.868214096381754
K 17.057630938753032 11.333359089074126 22.087415400093736
K 18.07312743767817 21.236012976460195 17.933764610854794
K 18.405641299870172 25.263481023475507 16.346522202874525
K 23.179215333802183 15.050567390494145 11.577913187129546
K 14.962721200336446 18.352640849119272 16.704259766933735
K 22.632596099821455 19.7027698787169 18.271313729282095
K 14.334569615659998 14.820751807272844 23.662556147955218
K 14.33209041163458 23.044847643287387 16.247392485907135
K 17.04922530282126 10.5567764484377 17.49297773083554
K 10.975945222602427 15.67852577177199 15.887760959222346
K 21.530724189590394 22.388859066708402 14.885767785215437
K 19.487212812723442 18.436673762794666 14.725163074724904
K 22.75509849509839 16.412964438969112 21.28765669506708
K 17.778859912738795 14.49946529822647 15.65287129060066
K 13.117533962330377 20.43416092222546 12.516808433105405
K 16.76276390527989 24.498363438243132 20.49649904884288
K 16.472434863778314 11.759353124482951 12.351284276927665
K 20.7315839643744 11.742986519060166 14.189419436128626
K 20.160277200344126 21.194240251474397 26.392514313209567
K 20.066526206997302 12.098934423955555 9.497363297380119
K 16.108799229968398 22.23009025703187 24.21648188490906
K 18.584754895589853 15.518206503977678 22.640624221946233
