52
Energy = -43.71772644 eV
K 17.5027523125909 20.118609322037237 9.09414955433193
K 19.328431875190002 15.881160780585946 9.208901402657041
K 19.46471289415471 11.321285186495345 10.677200754600044
K 15.091050147591892 16.169308613566958 10.061876591031298
K 14.771575299986013 11.642096899741318 12.277096604027905
K 21.91772478504284 19.20404276275646 10.774038273849518
K 10.787649312884739 17.670744962023864 10.997576140009466
K 22.683893971222897 14.94769608086592 11.823925060486108
K 13.932747797105035 20.13168551176306 12.520521322056135
K 17.325437177051477 22.97135993315579 12.843892422130821
K 17.988467349438597 18.388180372229023 12.875663478151205
K 9.282681856774548 16.569835223681583 15.030654076781502
K 18.202846199033477 14.097989045821647 13.429417139917796
K 18.00376757084798 9.712565166725271 14.811020989686138
K 24.74924443916432 18.902044268423488 14.503240569884927
K 13.503066868923725 15.8338452477692 13.968566674122416
K 22.273917586384254 11.394814016531226 14.449048256416757
K 21.12700144366378 21.600752818065114 14.262651984757317
K 21.19257843159555 16.966003127771167 15.533281531849267
K 9.704988888626184 20.984972207139275 14.279748955842418
K 10.93496619437423 12.376721549597317 15.071595275393266
K 25.341808197815357 14.558243709509918 15.271491028908303
K 13.684985437970685 23.65697782924996 15.630385312170256
K 12.763080546802794 19.541878113229277 16.952273902674357
K 18.31040987690108 24.422175701102518 17.22835012715735
K 16.587605324966624 16.448621981076403 16.779725654952696
K 8.435642204305584 18.49578788880819 18.732013853681977
K 15.110044801638155 12.559981689134263 16.656490437787664
K 24.05957223052218 12.20313603845099 18.755963571777347
K 13.562413145028172 8.764780515697158 15.93903756905523
K 10.129192256956381 22.683907823115845 18.43342088352783
K 12.267830973402836 15.559190907006137 18.619696793187735
K 8.285208389180776 13.777668075686917 18.387143552355873
K 19.69019997835885 13.115174152262782 17.788393857964838
K 24.08085007327162 16.671703161454182 18.94533678855178
K 16.648354787406753 9.533319422015346 19.254897587624363
K 9.749170463401603 15.410856571526086 22.124433707468796
K 17.351639268170654 20.53823627101681 16.79909565974127
K 22.116365300783738 20.666594062494713 18.34647327025399
K 15.380388592823488 18.490033333084178 20.511431647811477
K 19.601674031568294 17.341074795016432 19.660919908991826
K 21.037522509412938 8.962469898771033 18.067716168957602
K 11.340119120958718 19.806195376010585 21.751916308267752
K 16.3218135969032 14.034474717982615 20.858719005326762
K 12.132483733676207 11.422248606685905 19.825277178778695
K 21.466776023022238 14.209034712971526 21.935859708754638
K 13.589336067236875 16.516426888672317 23.94052339523009
K 14.467556162986893 22.787407672574655 20.03495961857009
K 18.6686629475774 21.52237888544187 21.27203775345953
K 22.241540507559662 18.829349515801397 22.59252018639998
K 15.165419102201385 20.809174457978393 24.104292550254655
K 18.139906080603737 17.27285826448876 23.802210087435526
