52
Energy = -43.52400665 eV
K 3.7510030754683696 16.268940537805882 24.342262738598855
K 2.034560499260494 19.227049458620044 21.0984252469125
K 2.4465090877943485 14.93517477546622 20.31093554789386
K 0.2275665071403811 18.814478756518717 25.479974352157207
K 25.496836535180858 21.600613579709126 18.1157941754072
K 25.304258033422798 16.968357048345723 17.169460030556145
K 25.51347306273764 14.380106599566005 24.32658502012122
K 24.365956841177915 20.325074593137913 14.027963935870686
K 24.451277522591038 12.783619051974753 19.920130315754005
K 24.00037362831598 21.457294853682036 22.51699252127958
K 23.61198123506708 24.896584392939292 15.4568576502795
K 23.2882916724493 23.617897571399862 11.072240744760755
K 20.997965997624135 15.159689004463871 18.320979793560042
K 23.849599748680028 17.174065583711617 21.360485107734863
K 22.146192173639477 21.799384275270818 0.9285390020012665
K 21.049880161735977 13.643654669930186 22.840881065582565
K 21.03775742307302 17.19367752670772 14.395976786002878
K 21.471999588339067 19.731388820534917 18.42996971660933
K 21.80938407179223 24.04287588243854 19.53835433637876
K 18.47568232756115 19.57909611417496 2.039796057763524
K 21.396682145996362 19.571969731934065 10.515859727924672
K 20.270385020654317 0.5801210532255378 12.588669227523075
K 21.591911289106594 17.720785587030072 25.097066408281894
K 20.225673685082477 22.119151274191474 14.629150819243867
K 21.75696125036019 25.298185133288225 23.990413303088335
K 20.3357448122412 10.886960705301343 18.826552270024557
K 17.52391154690615 22.240200133184956 18.473958030211733
K 18.808466913229694 23.092466609098217 9.968858835725266
K 19.534713256061845 21.40184558985383 22.67723067337771
K 17.721845867737102 23.800205163327366 -0.007748250915773777
K 18.470370002433977 17.39493008667604 21.3934863823484
K 17.69360739018521 15.518942114391079 -0.3783305600348917
K 18.034019581932785 -0.024691674836843425 21.422022355902023
K 17.146810050719107 19.62363481966115 12.555587234606408
K 17.374036402754236 13.909389158048274 15.71885197958856
K 19.030505162379246 0.39747142646088157 16.920952347774442
K 17.39293691749734 18.11116417918678 16.924564679511036
K 14.422331203912316 19.26250562280151 19.899015442721122
K 15.645702789702112 19.62985190157309 24.53160999211637
K 17.01091665929624 13.31218913390025 20.53882133923245
K 14.416277514722932 25.34998741723142 17.758443151307187
K 13.986694633659337 16.978939523201547 14.267670325980246
K 16.269647805258348 24.349693787762817 13.658993180016909
K 14.431506043969362 23.25098013849427 22.149798252474387
K 13.995261323860127 15.838077385255017 22.90183430167088
K 11.06893287187449 22.542093567645907 19.166301382953005
K 13.676157903589248 15.113509348579775 18.310330260789055
K 13.774325401840603 21.249980003007956 15.622368734198346
K 9.932677882229884 15.481769703895328 21.05502033557528
K 11.027614857604203 19.55930539282939 22.54370311240805
K 10.652038222180053 18.436642702832252 17.456280077365555
K 6.546953320791588 18.343773446819476 20.959781900562625
