52
Energy = -43.56166775 eV
K 12.596073342931952 17.791712902156455 0.689662040017831
K 9.642021725510023 17.40763584510729 18.172034023583212
K 12.239499624516261 19.98404462804685 15.749089438598048
K 10.166987949681221 15.170371580518818 21.801182664408767
K 11.844064482815883 15.384792224268129 14.798183860824347
K 11.6417507423982 21.12928924634019 20.348764783529656
K 15.4042097381947 21.08579295706102 22.939563704027428
K 14.813008772616366 1.4929743838761513 20.36095935309149
K 14.276508842032209 17.956622800934053 11.828434440481644
K 13.494611958862476 0.9205243366863924 16.27450497188227
K 15.16510943764762 5.399133602266678 17.3898172745868
K 17.043273209450607 16.659390804825456 0.24291119264118807
K 13.157586699776921 13.303839888726541 18.478513160644052
K 14.041898311664914 17.405891139340707 20.214347810363932
K 15.959372201720639 17.029304170895585 16.269991670215628
K 14.088931462648327 13.347574790776749 22.948727877773912
K 15.337645139989833 13.70680673055146 12.597934344366534
K 15.886035040476521 21.167940527399573 18.34685681029849
K 18.91555644704555 23.317979730744902 21.100817201600762
K 18.516157249925165 4.466995303710509 20.01073296270217
K 15.945575531206513 21.477008087860163 13.725411375586818
K 17.427235437578716 14.439800275493733 19.852044418266814
K 19.492344847916705 20.357619903187825 1.297783238429507
K 18.161325570108836 1.1485350083752859 16.681857170441205
K 14.467922782362926 10.056045787834757 15.543696965877627
K 16.294755654125108 9.625878003629582 19.643381839911765
K 18.50180774320191 12.197062829217924 23.536136993986826
K 19.094447998139135 18.694415608600668 20.52130344180735
K 19.970030663990713 16.286952209249364 8.719887975515244
K 19.667963069922088 20.324279647830245 15.98082741656056
K 20.715304022490304 15.927473372824744 2.758278625663208
K 17.763828319744295 20.293614816889853 9.512678293620977
K 18.07725413703458 12.754650251983094 15.906838940458279
K 19.29202998469839 0.021555537608424987 12.24000949673576
K 18.8531564923883 17.025574924953823 13.01865362260122
K 20.64421953655062 11.090938438220562 19.329118193174757
K 22.92655101141705 22.968005639243458 23.29603651226576
K 21.259887414479657 15.922661143095857 17.171422668186896
K 19.64483263740131 12.701566723899214 11.672070869851233
K 20.706347939266198 19.3204484072049 5.725495938584834
K 22.212694508031245 1.8285977387741081 19.22599063978507
K 21.867929555992625 20.086986071124603 11.44785601169162
K 21.634777491550473 14.954873080797267 21.847587692200193
K -0.37319597588345754 18.555462157882356 -0.03723457818043896
K -0.9312641776464318 20.912323772759517 19.266162533887048
K 23.11957553079217 15.57886082247727 12.232618613369132
K 1.0782554502458437 12.593800141078496 19.258875176349537
K 22.832156272937514 23.310607152223113 15.166161480557724
K 22.596089395262794 12.007168482557745 15.19731313718093
K 0.4982899567507343 18.917557692818242 15.20901753910002
K 1.4554968150056609 17.04836793985774 19.59482389847425
K 2.415076863976506 14.900987769816469 15.621136422743268
