53
Energy = -44.72278182 eV
K 15.527466842627168 18.402636040116437 8.488426741405606
K 18.65501367839914 15.290571643947274 9.87541953286271
K 21.784944406853015 12.253786822988994 11.646209273011962
K 14.12489669287675 14.414325413053206 10.396046027324502
K 19.460588325752774 19.82021869052786 10.37323437607733
K 10.897103584539614 22.359565619501595 10.795262313489044
K 17.246279968648224 11.396834792335591 12.130801556796827
K 22.61767348540083 16.763697403494167 12.049137943680519
K 12.057838660217033 18.274764792260253 11.373160521643662
K 15.316679288424712 21.875656107453935 11.444446536065392
K 12.65987621249372 10.749656149739039 12.74496384185558
K 23.191507404759108 21.224865627353772 12.612779176520641
K 16.308906428919414 17.673385924869986 12.729121419102794
K 19.419669635462572 14.643198484447517 14.345250052357034
K 10.516771279880093 14.690136237630076 13.608243230279006
K 19.23923687156764 23.420378043225845 13.508218188612911
K 24.354659850122285 18.22382126121413 16.061757073591203
K 23.640779770425755 13.670655113277881 15.56683757943583
K 14.729956673915906 13.967087164262884 14.856962426922415
K 20.117265385569233 19.18973796922488 14.844918242851593
K 20.408450439097567 10.37745730901212 15.588896711445251
K 11.807961787291449 22.266973726907274 14.87096360558448
K 8.788722717847682 19.016175564963664 14.377670225661916
K 15.023168245974443 25.243586858859537 14.31060948702476
K 12.80145791963924 17.951214345246584 15.85410689328799
K 16.221220560172707 21.353563396882933 15.928527395184707
K 16.968749594361732 17.107688648169912 17.101560842034576
K 15.718029753666668 9.657377255040435 16.167970271350818
K 13.456542513288802 23.715269441885336 18.628659856265966
K 11.55451056037116 11.80735577858117 17.05993165268024
K 9.552971040469215 15.919835030411093 18.012667545190272
K 10.216182383793114 20.34984042371478 18.70394365918805
K 21.174437071978907 16.19333589351032 18.385096669793846
K 19.141911230128382 20.290528271817106 19.404718888088752
K 17.914429001230683 12.880912958309537 18.317535486191236
K 13.814235327480546 14.919023952793628 19.28337487022007
K 14.553737671583086 19.513648040326487 19.860246170581842
K 25.25664747886913 15.182460823487615 19.52266957444732
K 23.37381626368812 19.387301220850254 20.50132508583872
K 22.2329448651275 11.777074562945788 19.616335447442033
K 18.746290002407708 8.81317272023086 19.54983775553317
K 22.38556644129577 22.227220237620553 17.033240934112364
K 14.644434925784319 10.716770306716644 20.524165694404505
K 17.682137192008184 16.2748497763576 21.418054114003244
K 12.096067145356345 21.769553616800806 22.59256623845969
K 10.684942962303008 12.895825200816377 21.466927754602537
K 11.328191784442582 17.32999750466618 22.09441265296296
K 21.988989160044195 15.299552439058415 22.71737315454278
K 20.054129406691033 19.225475981832236 23.662412046797563
K 18.68317144987891 12.090924961214121 22.720863285526608
K 15.335894736574303 18.715982031452313 24.221996644154217
K 14.452366504892701 14.147369359411108 23.711120180404713
K 18.36852829387792 15.575653937654371 25.636974031577743
