53
Energy = -44.93112362 eV
K 19.72897375571273 15.607615177714012 12.05114055053572
K 16.41388698387521 14.548336406863674 9.234946024015338
K 18.732162628656447 18.647611470054674 8.92705131642594
K 14.150729622697888 18.312812487240514 10.175077009136766
K 12.000289194219025 14.237656542033694 10.37546587427705
K 16.31336478421153 22.498655889734334 10.139299264381306
K 18.160355546151198 12.176712857199853 14.749058693368365
K 22.958236611251714 18.36623107918081 10.667919888115792
K 20.617982438675025 22.17331066324655 11.676708879813278
K 10.981614811816582 17.1174332522869 13.718966164146044
K 13.210429820352282 21.486654871339873 13.413592816925824
K 18.161646938944696 16.387094669137742 16.170891151189405
K 15.094924699181442 15.310776786019693 13.293453118378832
K 17.311845831856974 19.447620875646102 13.083113715130466
K 22.131670274876512 14.41090503589821 15.788132821175692
K 11.512638939270829 12.66637354913428 14.64131742917668
K 17.2622597561118 23.721886430510768 14.416364784267389
K 14.80922843056819 11.107470406090112 11.961518535056758
K 24.75983217961833 21.505540311801674 13.514417225232348
K 14.86084427838615 13.703974083902551 17.58230564250506
K 21.495394990538095 18.972694860763365 14.829465378080261
K 10.241417608864337 20.279321888800403 16.838369217050644
K 19.001457706742833 9.260337213831765 17.974883460623037
K 25.43560575800433 17.05976992404729 14.475698143572611
K 14.298089278890224 18.59179737210306 16.447673705324977
K 21.534574725442713 23.212637389922072 16.152690640799083
K 8.054582324997044 14.799628354829213 16.573941100082084
K 24.63552506828422 20.221910340903847 17.917111741815326
K 14.694906507006644 9.5496458216389 16.25716877974684
K 12.270935623129175 20.167304353951735 20.867037389560373
K 25.171595983615962 15.752066377210804 18.870704671181507
K 18.147171885897233 20.670867157382137 17.56505690156809
K 22.992533147791946 11.624936812673635 19.148859269874674
K 11.46155718339836 16.192400630916566 18.708139805724958
K 7.842106010846168 18.203129758798738 19.91343671309959
K 21.092850667460876 17.61745484237522 19.188921753319686
K 14.105498051802245 22.91090735887059 17.798000359624954
K 18.152139087586395 24.81394803690474 18.76308733582555
K 19.021284270498565 13.471496656445265 19.22656231084708
K 8.462190685021742 13.938414347876513 21.03996942503155
K 21.122269536115258 21.917911516961592 20.626322822241544
K 11.323465100270449 11.393308353836373 18.88739187430579
K 16.22918513170114 17.22139159382171 20.199320284977063
K 24.054427535235945 18.808160748679565 22.15870909022577
K 15.63171690030223 10.572335830037208 20.6563753740838
K 22.048640670948878 14.650036690161432 22.340298283894672
K 10.359580688700513 17.160974224311758 23.45327414664304
K 19.934341543135822 10.493880648744755 22.302291627995103
K 16.49265758284902 21.66038019910585 21.692778109048675
K 13.137446952545108 14.000858671156484 22.175870861474497
K 19.424488139216965 18.530774326397612 23.19666053131608
K 17.50967263991013 14.198955194719902 23.317148288222334
K 14.746895918795701 17.944812088765666 24.155162131546486
