53
Energy = -44.71591579 eV
K 19.56222047067602 16.969731567622198 10.129530426468
K 20.305625655845684 13.546677383799901 12.822800226842784
K -0.04923601391273256 15.91310229550859 11.759176884192637
K 15.816032462630911 13.611623446158013 11.770862353031374
K 15.215040345178231 10.942019598226398 15.410196437523513
K 2.9737126302496386 19.19741288759721 11.674963367226885
K 19.534924918628683 11.254609277181743 16.5790868015069
K 15.457928854187491 18.088886099692225 11.310078993729086
K 22.78856599994838 20.32694201690271 10.538834900094606
K 22.727125538119804 14.428085712559099 16.530074393258634
K 21.17702914729369 18.268234475129635 14.296174762580629
K 12.853627745795007 14.778283499951579 16.532059890909483
K 12.85718401871116 18.843144124420842 14.85967195415154
K 1.6901602940571288 17.713178098987623 15.79334632740336
K 16.953624179881764 8.28339541738239 19.1774419396075
K 14.079658365704914 22.435580555159675 12.221109270087917
K 19.939052072785575 12.047252292820524 21.05711788884746
K 17.317950118575656 15.855521795076674 15.265076959580602
K 0.404617134257191 16.96154878858268 19.917062261023325
K 18.379848464357845 21.47266730582699 10.615650594068907
K 0.7541934842381569 21.804738443772713 14.660656074056295
K 12.785043366399524 10.876000853268879 19.213065351730666
K 19.894574950116226 16.55400238724232 19.143069607642225
K 16.44990302214919 13.562497164843373 18.99528005151472
K 21.764547214227132 20.408295669252485 18.074373031879393
K 17.25218094167409 20.39335397182279 15.072510412394733
K 15.553335669421156 11.401100299809325 22.893111593939082
K 1.704183429070929 21.46197806531957 19.204006287353156
K 21.81211260701238 15.58699506134338 23.18268336222188
K 20.710983089829128 22.99231909609569 14.083910012896949
K 22.968345722645058 0.9902682707490855 17.293468489969957
K 13.61212503366546 22.958285599077417 16.789736159720984
K 16.933987760890748 1.1730549967372075 14.544811617788415
K 15.833642803650479 18.434243074045625 18.880860950342964
K 12.800084763787128 15.117772986534767 21.080217258398747
K 17.28359294115909 15.831120119213711 23.000669055087112
K 18.424934477733533 23.339377749367493 18.272377393014775
K 23.30813152405438 19.950097854162074 22.945121645467616
K 11.639974053647249 19.201553671695656 19.19881085733602
K 10.98157207228263 11.65312803477753 23.32017693795981
K 18.796293300010188 20.32718157089588 21.885347255320923
K 22.186746205449175 23.967884535418637 21.33723861025783
K 19.49477046229832 3.969299778743907 17.761570918166885
K 19.899357481412284 18.527363865519714 1.8984423187950241
K 13.558860848511987 14.686252282742718 1.481445047039131
K 15.402872480832587 2.9130610417554377 18.80679692180697
K 14.693394615919326 22.59467891946397 21.0577018759169
K 13.943372475893764 18.844578218718315 23.38311217376978
K 20.683310478815407 22.926645189698178 1.4865929847659252
K 15.819274750254364 18.08277579703897 3.401445386184347
K 18.066700413690278 1.182589405307884 22.24891157012246
K 16.236871679460855 22.123624859351267 1.4103960951075962
K 19.162924524114572 19.9606517779521 6.268591861285375
