53
Energy = -44.30260416 eV
K 2.815036765744344 23.78635504641497 15.805164659815741
K 3.149297674616465 22.92655443527653 20.30495047774797
K 2.6350755773712353 19.55488053195111 17.158641039560834
K 0.372903543005715 2.7900061914609178 18.26416491649216
K 23.263043927375193 1.4782900106943009 22.35998071722364
K -0.019138334910199447 20.824481349665756 13.587797383912429
K 2.9954591617527675 18.254264117774845 21.573424353384734
K 23.42402979348889 20.99602332587436 22.76393378992367
K 2.671868149271157 15.041613999967572 18.241633704310107
K 22.640263726557922 22.235645170534102 18.616777606060534
K 21.902010563733803 0.7434178528138191 14.906761842268958
K 19.755175084071077 2.0176132351821616 19.366157208449728
K 23.402750109144602 16.483422065003868 15.06449016324636
K 19.319062636977986 23.259452942415603 23.464886379012228
K 21.30812021476116 17.582939909116657 11.175032161652672
K 0.660635483837368 13.42693428823225 21.95539734081633
K 22.91232504733532 16.925339473230796 0.3893502870163462
K 20.815578656463106 20.182482033505813 2.642960876365999
K 22.890230071759575 17.530769425701372 19.411600009591574
K 19.17384360003279 19.385290263522542 21.178591990620543
K 20.455841929594445 13.41767131803963 13.451312614666373
K 22.513132222693024 12.875604593662878 17.860684543602048
K 20.143049486115228 19.59330185228706 16.151884947433548
K 17.633271283888934 23.39794096157768 16.02935502964354
K 19.344009392990262 21.569810983815167 12.106186967584907
K 16.153071849876884 23.07942018806326 20.10179569399383
K 20.018974426074127 14.731004383942425 21.4215452373988
K 15.77608003447779 19.13529188497649 17.71794365059943
K 16.450751224875074 20.858589324262205 3.2074459127621258
K 16.751988387734155 18.649033922756875 9.089865705893615
K 18.223323910945123 16.801860289914526 1.3194501188027457
K 18.614632461348556 14.51007910842463 9.501010145493135
K 19.360603275781028 10.080695742035173 16.543687295419335
K 20.481416234599916 10.312128806126935 21.206348801458816
K 14.850588807696823 20.85480805282381 13.40345614156792
K 17.47394621449315 17.141005120157498 13.368585109849535
K 14.872091807741224 0.3351752821620626 0.39033506451414895
K 21.21049345956596 12.86322398150003 1.4662210963810127
K 14.857453510038178 19.901742287466092 22.85353219920636
K 18.607578535061922 15.357015691121772 17.36934219795253
K 12.80620732394951 22.69027774853995 17.061350201540677
K 16.889940636715465 12.39828804187241 -0.048073222723455676
K 15.995239277648363 12.830920546079575 14.55395160693536
K 16.512766062929053 11.729202866640048 19.367711894652373
K 11.331356640199855 22.530227454838936 21.222788512652016
K 15.685079206363747 16.006663157082784 21.174960614896918
K 12.271486699413021 18.65837401766383 10.582149872371843
K 14.4794834701192 14.880826955361883 10.804090605435087
K 11.494648154806546 18.63164530188018 18.96057214396697
K 10.08853887798407 20.11579557610831 14.597091659386889
K 13.046850215593206 16.779293646893446 14.690191863355402
K 7.247832683009524 21.19618648394309 18.27226637166031
K 13.104673710661837 14.227469854243148 18.148936181859067
