53
Energy = -45.1536224 eV
K 15.1778936300442 19.799453005088612 9.203470695433056
K 15.14902784915415 15.495317045325224 7.934984357863212
K 15.607945933101274 11.4506670312857 10.24332738253704
K 19.33936444915113 18.534297278826 9.605966830379693
K 11.45642700458261 17.789013570217268 10.724381641654373
K 19.360205684596078 13.986625649095915 9.896642601062842
K 11.760937038370901 13.278112814316884 11.317011111257466
K 23.37789033644884 16.258043627272908 10.680640071820772
K 9.152559912485257 15.562753211833089 14.371979073915009
K 17.842406500307142 23.114990635189088 11.05804623860771
K 13.258777556238382 21.93487606461325 12.541175969706932
K 15.585806471246128 15.919206457384536 12.071768653775552
K 16.757705331049966 16.252826786209855 16.36666431746339
K 17.772521520211704 12.175521642343213 14.301542409051063
K 13.671985414752612 9.49536797065204 13.682233478033893
K 22.280469089184283 20.12275574719175 12.91313118660342
K 20.09235251504479 16.270354242240433 13.56328175287816
K 13.266874284595726 13.552130018725652 15.519092610027373
K 22.60908294067778 12.618580826833192 14.007364046026474
K 9.529502575438993 11.030210672980008 14.799232956455418
K 20.43785426827543 23.43166290143636 15.11743823482381
K 15.97637731317843 23.942776759432302 15.555736696885232
K 9.105656951357773 20.120164603515672 14.002788825422213
K 17.378021178234196 19.931484273174043 13.730485213039074
K 12.916358605649018 18.230510899653392 15.139576959898077
K 24.262424549418032 16.68034896248871 15.301549459674144
K 20.377193053328302 18.964178952571242 17.357027036376415
K 23.858951017600763 21.230512985714824 17.488900174461204
K 11.817461216777831 22.318014548717954 17.074536496930758
K 20.56478479677711 14.416415814415306 17.786525315687104
K 15.936768843915996 20.214094695420453 18.234756780761778
K 24.203363033502622 17.068411858329416 19.69533577754698
K 19.428509700812565 22.996856020003264 19.3684390367397
K 16.72400270133872 8.660399880153289 17.09524047826499
K 9.498646209876028 18.2352819759727 18.201714457512395
K 24.278060120522508 12.565502769635614 18.568808205044938
K 15.095496318397625 24.153952499734302 20.09925125156622
K 12.531726837432654 9.86920068892589 18.239519820915877
K 16.26209338639839 12.642008196907584 18.988512044375593
K 9.8458009602177 13.644623384639111 18.60435869103081
K 13.467115565580702 16.30660645972107 19.394969599226023
K 17.88630538636523 16.70963796936609 20.803736844777788
K 21.302252665557415 19.642259100136954 21.86344173260847
K 20.103466729685486 10.603831308265104 20.095722981581496
K 12.532093415087976 20.316931155430247 21.267449576726076
K 21.632782444742183 14.42493704288933 22.29536821400505
K 17.002906959920896 20.79311780705285 22.742428047914316
K 15.919493835703392 9.08241998794464 21.56809243101816
K 12.92909102785787 12.559160827085451 22.166757554913026
K 10.21635322972481 16.312227458053886 22.372280090596654
K 17.44722737463745 12.918964668710778 23.492784795506797
K 14.480084609052527 16.723279424495164 23.877287252864967
K 18.956009084237778 17.07358925023069 25.031711964599527
