53
Energy = -44.72575176 eV
K 15.949955587762213 11.861019604433526 11.527888998475392
K 19.70714234703759 14.319252601229474 12.284293470926643
K 23.213897969827002 17.460033205788317 13.410199740104307
K 19.331211732523503 19.340944072015727 12.245230968064421
K 21.931214597058162 13.381453937791958 15.998828623277875
K 18.60180324689604 10.389858921389465 14.870890389586854
K 15.637456040529043 16.481065992408585 12.24399294538948
K 14.81548921532062 20.838711476813444 12.293913678788906
K 11.993301285606217 13.570829896809656 12.706915825380461
K 2.3030644591683536 20.678012511537233 15.598108494725569
K 20.447900461245407 9.643046050074783 18.789977231611644
K 11.23753470029198 17.8431756064026 11.927011598705938
K 22.670706093533262 22.662997341148706 13.20364786874624
K 15.84158545053489 13.709382728527059 15.614870360676957
K 0.9011416668331845 16.696724700220756 17.511347948196335
K 18.95355420071977 16.913952230014107 15.959271581180165
K 9.296020383628388 16.030671646278503 15.622076054088248
K 18.25199499795695 -0.048456092074753085 12.256019873686451
K 17.169945808183517 21.028377209882024 16.093254314512087
K -0.9062208996756861 13.358725155866264 20.456088197048018
K 18.663711695067207 14.090150877564183 19.144497166534233
K 5.226309255078093 17.83222879139524 18.55999906071055
K 11.698931300521993 12.225670471004603 16.897847674738074
K 11.163453554642189 21.208216742902152 14.856720344845904
K 13.618516850022209 17.672857221189236 16.350386246462886
K 21.710242911347947 20.313006861366883 16.680430495469704
K 14.881834501473703 0.9041794589046396 15.256371914693668
K 14.173547005094232 14.719590000178123 19.71431199588879
K 21.24117344610558 17.74036829725992 20.34343976723975
K 9.430451116452934 19.60230987287516 18.581966959123424
K 11.917705410658876 11.19835621604766 21.209034630474545
K 19.66138622114866 1.1205437366453077 16.31318564425734
K 1.8198791459010384 16.729765071059823 21.96024132297447
K 18.93872291412119 11.56489430059922 22.654302677405294
K 9.662632449130538 15.218114422971631 20.08137078084199
K 16.80942997719182 18.61742502892579 19.81380284779007
K 13.511445152513462 21.918932228573357 18.610702912086488
K 21.374221458796768 15.624070498687994 0.35770484869995395
K 0.031011490989009675 0.5659801513328432 17.669562322102124
K 15.900287839606293 10.387111747495066 18.930581102302117
K 12.67138614730178 18.568507538162347 21.562181417203195
K 16.87524194574209 15.62587836662785 23.132484649219933
K 1.4620456656566736 20.760359901897655 20.032645938260128
K 19.94413195655937 22.1875137663306 20.18519710522292
K 12.279565393768848 14.865098066954568 0.21754790957518788
K -0.5437398564108008 20.078507491261803 0.2186061295681215
K 16.561171517408283 1.4640428585456633 19.681987901584744
K 14.656354819212158 18.581626858144055 1.8529483495551407
K 15.432387193292168 22.084956863261233 22.691081254840867
K 20.804942356022725 3.343330394275059 20.0869921511779
K 18.898285179639842 19.687071173774616 0.3530934200892302
K 23.43479844206749 0.4096966315505624 -1.5056825266846747
K 19.191256910011738 0.7197626547248784 -0.013056938342162473
