53
Energy = -44.87253526 eV
K 19.1913958271419 15.0933146049598 8.380328557340766
K 15.21486743585257 17.41235540950105 9.411262607515534
K 11.104825434567685 19.46584462341964 10.605223417811947
K 15.869392149534397 12.844404705746499 10.608560399268718
K 19.201927321244174 19.554756550063576 9.74147063895956
K 11.890504374821234 15.10382686956341 11.611153248297867
K 15.155784339173001 21.755953491509793 10.823907563067408
K 12.575095965183781 10.811088491639108 12.99680846820088
K 20.396292458826828 12.216413637181448 11.744798916836771
K 22.586317192338363 16.186126322529503 11.192138593498889
K 18.210499214548847 16.206138498712367 12.461197901114458
K 14.07974499552732 18.462065302345277 13.615539413072954
K 9.608262643079986 18.101183490483546 14.734993864320032
K 11.54336805454375 22.158993357639073 14.232074498068446
K 16.97485819500653 10.084142907416837 14.113141254611659
K 22.714691397711267 20.48594686406906 12.639819110421087
K 14.853912838497859 14.053053587751881 14.758344737857033
K 10.3295071740537 13.73805251562341 15.626349246823308
K 18.200140974851966 20.71245727041024 13.909903691225292
K 15.455786915264486 24.319771837771032 14.626648859890206
K 21.370607138527916 9.622363150943068 15.419430968134956
K 23.663985231044666 13.528486179779039 14.803506992268046
K 25.690010142290625 17.558292239852662 14.289978626015314
K 19.308909867648335 13.395537719766859 15.992675010820795
K 13.527416689525918 10.728592411063701 17.590882102890582
K 21.46533620996098 17.4057111978499 15.43456912295304
K 24.578463988054136 16.11337476327676 18.5048193227296
K 17.117937135909393 17.341481484370462 16.633325739814595
K 14.718904849064531 21.001705694396406 17.317401606108543
K 19.4271645052136 20.708498446334925 18.445175674165917
K 23.964660074318434 20.438141890777484 17.265322764827854
K 12.36847278404453 24.61623733359576 17.964428495695792
K 16.7002808641254 24.32599061905828 19.278675562732815
K 9.11571643568017 11.212947075809609 18.83768425060258
K 22.36359228149495 12.183601491841731 19.10011890756465
K 20.173901547137184 16.1921443639613 19.64739277667107
K 12.767055772421337 16.867630170355334 17.829220193309233
K 22.397360062415675 19.500518719937862 21.538599937600996
K 10.349331719717169 20.569579770771945 18.517330622743057
K 18.21886272674086 10.075678730174532 18.76716956385973
K 16.121238519115902 14.043406132488778 19.377155709718423
K 16.026355976780984 18.435803092873222 20.803591822157284
K 23.08252904353084 15.024975877248313 22.646611532981463
K 8.584299269271842 16.21362616760035 18.983960812902772
K 18.372378324090356 21.717501936975083 22.66248029125803
K 13.5437910877859 22.14799726251666 21.60986616666456
K 11.791545857594466 13.74140291150314 20.958187958366228
K 19.08008762059143 12.81080280780649 22.413566990918973
K 19.142095091422032 17.345006086452887 23.822135793042932
K 11.612780680798073 18.086146618794125 22.13645860477771
K 15.026178844952469 10.785511576881909 22.030025427462746
K 15.153608990664665 15.065944791082499 23.62026673449236
K 15.010773930547133 19.422279109774085 24.91712708979569
