54
Energy = -45.73566037 eV
K 15.568465024718762 19.82197484743262 10.147344015877675
K 17.794062703740092 20.29941469020934 13.955699400175819
K 17.301884777865016 15.518723849564525 9.855414860271946
K 12.681684964351973 16.324934641501837 9.477915781061997
K 18.949520188075816 11.723078423386758 12.349683910485727
K 20.183054634089377 19.051261765546 10.434912148164234
K 14.46730806334809 23.19849690648333 13.19325036060381
K 22.069282565127136 14.630644229037038 10.470838326193956
K 23.505191695963163 17.87111453848951 13.113768301164049
K 15.646250144237467 9.09289670214314 14.27054949653811
K 14.674695662306622 16.82282966976521 13.322504671007245
K 21.958264733459774 21.92204340668699 13.908952582679802
K 11.48850618201371 19.724440647859463 12.293874726747983
K 14.008660557915487 12.700535896545786 11.841203001389697
K 16.8807486104299 17.23872063021472 17.143223884823463
K 16.264616505565822 13.14597783339318 15.692963225601545
K 10.45493616234956 15.280915345915947 13.368194072704298
K 10.501281090526255 22.991910634192614 15.392685101024027
K 22.673853713094108 12.790118156103436 14.632255860013814
K 18.413468093115913 24.475866960109027 15.443103182495365
K 19.44689876517969 15.967067467811388 13.7267318837183
K 26.366975424712454 14.982959102094084 14.140003834624563
K 13.643147943603879 20.13422704624074 16.263987000250435
K 11.984696344655065 11.578732579562232 15.866742277673982
K 25.2629392117565 19.930599395202442 16.585380796492508
K 9.33290448752839 18.609007325246896 16.42240608564426
K 19.475244552762863 10.056323203107691 16.69047804051326
K 21.097282111439135 18.734104337080456 16.968491342173614
K 8.542363005055828 14.18112973275889 17.405716535908567
K 12.628390846059627 15.698575792509555 17.332824334809153
K 20.06011534848038 14.217094075382953 18.136837344574168
K 14.34966660798555 24.382667022023195 17.531331957987994
K 15.320088679576296 10.031731533085932 18.784672146503084
K 23.268935093762284 11.354393138265452 18.902509474038915
K 17.55357013239249 21.349758511406506 18.46736354545982
K 21.850593393155947 22.89731807993936 18.23943177253173
K 24.33536538862844 15.683896864725131 17.96148480720696
K 10.951285887746463 21.444603291535934 19.65685064755565
K 15.932535977819697 14.169688450106847 20.169795527531374
K 11.576068760802732 12.516151454066291 20.312740408988883
K 18.199710858491535 25.3321335420971 19.93055451235978
K 9.867826144251376 16.91346872327446 20.770047933044786
K 14.400553923927992 18.500528769993277 20.63829659655794
K 19.30729998540337 11.060724843047769 21.163687374617247
K 19.07583096158499 17.666318245737603 20.986220535711116
K 23.39247581772637 19.065284122533374 20.801132276211405
K 14.833466318398951 22.753490394455298 21.7726077470422
K 22.324589822775163 14.550139846254202 22.018421996407977
K 19.93584566933922 21.781191604680107 22.279396232558117
K 15.08749773930021 11.303345736818137 23.198753844992556
K 13.108067666510571 15.358707560904778 23.471449903232994
K 11.59383536188923 19.816160088630966 23.70428355865863
K 18.244969308262135 14.52134306127669 23.940830700137962
K 21.361508135952683 18.029517032775374 24.648481864467072
