54
Energy = -46.10144822 eV
K 15.212359414460533 14.818608777741774 9.500828679905606
K 18.635602212070495 17.4792684365314 8.181005232775021
K 14.859335847968495 19.36017900988908 10.048260956191562
K 16.371817114747657 10.98922645299039 11.893321724318119
K 11.194598994449745 16.683511647606224 11.520170459734526
K 22.270898689520948 17.634022021765524 11.327709548398893
K 19.23991480201617 21.18733469075449 10.970044395044619
K 11.88433148314206 12.085978336184956 11.1783374990327
K 19.993106283763638 13.679750304177746 10.449487404036791
K 17.847914484728296 17.085352256862986 12.487963858696004
K 11.09199881531343 21.19937210993059 11.959778529383716
K 20.934388473461503 9.886480594484462 12.901152550623362
K 21.280753538923307 17.17012270246297 15.734741734122242
K 18.233262746345677 20.712546411907784 15.378919930772513
K 9.460682749174117 18.571968940117852 15.550132704034455
K 9.73439264091257 13.925036080356897 14.904706682186788
K 22.605606182092654 21.37613373274136 14.232459037111525
K 18.922598823792796 13.180410767448452 14.893998359371233
K 12.662482919811831 10.45630086615529 15.56338121508754
K 19.32477713430032 24.808479467140824 14.109948886751765
K 25.570662427439025 17.813451130692854 14.830909970425305
K 13.906405926193017 18.961326617676058 14.47964953319772
K 14.296982441726067 14.446838542465443 13.956056346530469
K 15.245180793472011 23.009416604851463 12.954544750485464
K 23.377385872251253 13.753427631360477 13.765626766627514
K 16.91359576739207 16.693993163069617 16.860016156132538
K 11.881322430496537 22.495188929539122 16.38906292321148
K 20.791673330884752 23.226314736512293 18.218605216241144
K 22.258525381503183 11.175026774980259 17.3892592217455
K 23.76269998325152 19.70103680089516 18.586208160470495
K 24.445638550241252 15.130619488840011 18.471041831486428
K 12.497852541930634 16.073268822278248 17.882693609904454
K 15.627255901767873 12.6342493545108 18.2098787333305
K 14.857852488144074 20.074171780383995 18.929292780537114
K 16.196500095215338 24.13631941533043 17.469940620032528
K 19.41202791036302 19.135932137240086 19.684111640612894
K 19.963937938128662 14.519343224254174 19.333635665510876
K 8.217056295679466 15.629559237106092 18.953157317609698
K 11.154660670233463 12.071669673518633 19.475534628877167
K 14.274515795223408 8.734427568961365 19.696076505308476
K 10.456200728312059 19.672640421748202 20.01461228156649
K 13.00056289179919 23.5839184023138 20.793617901730034
K 18.553516260056007 10.466370124159639 20.979480229043457
K 17.424786223482116 22.599545777866346 21.858443445457997
K 15.967046638016424 16.296848853021118 21.208677826735126
K 22.752157886012824 12.28694402388183 21.875478450643346
K 21.88957966273249 21.52592921634862 22.466115473747806
K 22.496415318401503 16.91890912756254 22.266646872253723
K 11.55875376814334 15.713649209719739 22.30961351844168
K 14.558066476529188 12.259948642201252 22.662107564497774
K 13.818379532579803 19.728524094383108 23.34985186829093
K 18.542890346580545 18.73794216213147 24.123657654213787
K 18.95472363022565 14.110896112661623 23.763530080630346
K 15.176268620286299 15.954172465973235 25.568418942580703
