54
Energy = -43.87634602 eV
K 18.79737346240704 15.377969020914229 1.8922503503422647
K 14.959737946057201 16.70777149340988 2.970890277847499
K 1.286391159267369 10.40578027750292 0.47803018433080147
K 19.88602955488518 11.340689140993574 0.5893533487736289
K 0.12891508481313504 14.436766340353998 1.5722917754147498
K 15.535820574280576 12.48714708329566 0.9926460837974064
K 21.78094769340916 18.406325665157265 0.7368254176755482
K 17.57371942895268 19.019552079804104 0.0020919757112624537
K 1.8171024820754953 21.467375375495333 0.07965644505461573
K 21.822644849453877 10.937198974728709 19.576294443055296
K 11.913854690059745 14.920324581435667 0.548579075535578
K 20.64983086195397 15.00217476640751 20.881500716717916
K 2.3600991826011226 13.446555262697167 20.609178788596616
K 17.451864305118942 11.033855173682284 20.073617631517177
K 1.281039104922792 17.688129853055603 20.220239155982306
K 13.351140922375855 12.277507812462964 20.188869061745155
K 20.46103103269653 22.404809733719922 22.679432039718087
K 16.04359351066526 15.582000980810147 20.99802435054626
K 16.120858076891555 0.025920376142088603 22.343095637659363
K 19.322981406567404 9.844838027787867 16.27880288721367
K 18.617004400745895 14.22102777610608 17.246225792523738
K 15.41755055665751 11.538069900175655 16.0773877575304
K 19.87004112678736 18.594966756037117 18.739902010571424
K 0.3948259862701675 14.40768560071206 16.993410913224036
K 0.14650028316543293 21.812586908035907 19.127584925120818
K 11.683587573142452 16.341651526811894 19.49501968518118
K 13.035493696877746 19.34134391709191 0.10766631202657455
K 11.169360574732877 12.78623723154996 16.587728892029585
K 11.87371797144028 0.7354772364452208 21.969896629773356
K 21.12815807156161 12.609363618477955 13.661363546120803
K 1.1307893778567624 18.740176677440594 16.05684102782228
K 15.303378734988302 19.331600912414952 19.232964970526417
K 14.742641722796245 15.906183846000456 16.428453337473233
K 1.5118159533952793 15.655813797409412 12.899989400805183
K 20.41098908920809 16.971537092255506 14.641798312755512
K 10.789485436308043 20.42468107283389 19.43754402136167
K 18.753852016222616 22.86546358200559 18.75609273402119
K 17.166845901178657 14.465120518483594 12.885835090262555
K 21.22567050443004 21.999004410727558 15.329174459667602
K 10.47428753842153 16.707125783371122 15.00438898927662
K 14.52373322211345 0.5026894114088316 18.294836438921344
K 17.212886037640665 19.802485487405853 15.489626860591438
K 13.000460794469594 13.41217530036769 12.716498482290588
K 20.925813863301457 15.43691975884848 10.343988392632122
K 10.34236174224696 1.3058003113102588 17.559637102293493
K 22.492890314289713 19.546115888024392 11.810265768947351
K 12.739919565954414 20.442024932554286 15.562320572049819
K 13.967921598888461 17.591281340280553 12.471034129870308
K 18.07989474970101 18.495724220590414 11.258501448562637
K 17.621305136859828 1.4675500277991094 15.025253962700944
K 13.232904035902283 1.9632070274446825 14.278424130903206
K 15.128525068878941 21.676573878001953 11.973951865371093
K 19.463265208250622 22.72204943418065 11.341708818648964
K 16.181746324901866 2.8077806726039727 11.171170950903885
