54
Energy = -45.50818908 eV
K 12.404985479082262 23.208649030688388 21.377063141931213
K 12.372075976930759 19.116683461851782 23.830619283589066
K 10.087337495427942 22.464765124618502 17.61932081729719
K 16.846516647258905 -0.007837184894955555 19.721500164473763
K 15.874046206834832 16.955603086126406 15.89043816283354
K 12.756867821708962 22.9157606143132 1.9940649266592374
K 9.661186463356794 18.754585243718747 19.952139796475418
K 16.299516796840738 20.61051047089333 12.763723458398886
K 17.272834909241006 10.518023886641814 14.633957847798472
K 15.409156661489222 12.850514453737272 18.02808317679894
K 19.48586445912858 10.502794771209095 18.56078844901161
K 19.601421945519547 0.37812858405400485 23.296552227779863
K 21.366694281329448 -0.4031484698547639 19.04505303726916
K 17.64738808255782 15.389544457490404 12.03307773385283
K 16.189104865460397 16.568147219050214 0.7242235517966715
K 17.628192641141602 12.904537056233067 22.100697507215347
K 14.972347600876388 19.500792868884545 4.096632490181743
K 17.582494237511327 18.767894852627734 8.249929425227684
K 18.329153100904918 20.436454780079092 17.5867581460581
K 19.58205341505004 14.361159115639632 16.230114583930213
K 17.171578727935593 23.486478621838298 3.268160216038223
K 21.782868476277123 13.910740726753895 20.26259252776019
K 13.54316919798949 15.714707187635842 21.02595394528048
K 1.52462244420516 15.058676405420792 17.964858665859772
K 21.748925623266576 23.222872964576986 2.9779226326056447
K 19.303808584654085 19.405526852047938 2.958792077026878
K 20.648026285385026 16.144452569868672 0.025951531219005636
K 16.42913083634923 20.95911152156365 23.25968831454089
K 17.948898878770287 16.87872291678584 20.210081476139525
K 5.140757077336823 18.38705335760766 19.120062061500565
K 20.14265722466485 18.42808822027118 13.918251317785423
K 3.760578363082848 20.602756970229123 22.876916255905044
K 20.811355094418154 12.187804730294758 12.370950832497794
K 0.7103242831220868 17.303480593050494 21.740828031619845
K 23.653446734634972 19.485794144909818 1.4799060295656348
K 14.168640050616142 19.762869325522527 19.206523790931897
K 23.560906397886992 15.503310224545167 13.892825215332396
K 13.860709784686586 13.321503784283378 13.668933078894295
K 11.638809636283995 15.72511981451837 16.932270216752652
K 22.121686813818304 17.99248568949459 17.977211500661948
K 0.008953602754306154 23.250398726826567 22.9047068956494
K 16.506661577034656 11.498150535110646 10.44989202888163
K 20.721495553825015 20.14298270668921 21.946860813417615
K 2.464391386013198 18.731305943371645 15.414956851391228
K 15.362794343037034 1.723576976524281 23.64574608297285
K 1.1708724560737969 21.01000884519664 19.132086033223146
K 12.317348932383222 19.52609751986265 14.956058074239438
K 13.850539223979602 17.224272009315413 11.22607819017625
K 21.36685835493647 16.515105394217972 9.91851772190563
K 22.878536840375748 21.767569264923956 15.151238832237771
K 0.327275372002735 19.49017487000808 11.595122156573025
K 14.278127420758729 23.271954106308524 16.166665777883566
K 20.28699892864708 21.585341724671583 10.891929544726565
K 18.774710200310984 -0.1154358176517551 14.98647230875171
