54
Energy = -45.86532291 eV
K 18.83760223988997 12.799048988865282 7.910134020630163
K 14.473272167465412 17.39409019045099 8.693180592862175
K 18.80559861695045 16.62267163824443 9.779256977557706
K 17.331499328821756 21.037296267907838 10.34239877128325
K 15.401419346579765 13.527089939895944 10.902982994252307
K 22.861569371832278 14.687176708382726 10.647399319090109
K 11.648214922312548 16.18773936252878 12.145129139555168
K 12.858624877546859 20.754238474227638 11.746121751684626
K 21.857043876712343 19.393486766582065 11.32801516494377
K 19.616197310042708 11.759068769541862 12.088858820187424
K 15.854246926933456 9.455450269479929 13.197667248223912
K 20.593508192797913 23.732728495565137 12.063476928746999
K 15.831499649692894 17.61258855669415 13.004298835974188
K 12.172646490600489 12.162590349081007 14.378267616882797
K 16.18416218813313 24.066873367212324 13.915643333419599
K 20.24705883368229 16.07828750634988 14.01640941757041
K 18.903346603594393 20.624930823561574 14.666544897897325
K 24.4911884554577 16.96403318322211 14.667358386005004
K 16.583818251363198 13.421200124186157 15.174855848352205
K 8.755429036462388 15.080469566332347 15.795688799797857
K 9.973161038815388 19.541532837583095 15.209915475488563
K 23.257974035300677 12.525779158808971 15.044144142167957
K 11.674217348869973 23.970478862796572 15.080129181926521
K 23.361789490204448 21.428576629595653 15.071674369760716
K 19.519750734039228 9.808493624383615 16.21041782869702
K 12.967008772533413 16.204861791249243 16.537183256942427
K 14.33263345896595 20.649091265592066 16.15253512473574
K 17.287220311439924 17.39730307049766 17.23348497984736
K 20.04761543828943 13.949345936339656 18.154685757520237
K 14.662785725876176 24.477637313307856 18.5315214669455
K 24.428185071225947 15.025402660516718 18.8887784763686
K 21.51776962003859 18.450320207461388 18.016701273485772
K 11.690420686665995 24.788054441632482 22.189591190488304
K 14.798677417985918 10.16009449521313 17.724131648496762
K 25.880406308989308 19.223252236832572 18.46042254299232
K 18.398314107154857 10.668752518137214 20.72455314964905
K 22.904569197538667 10.670075040919345 19.215671402023744
K 10.92299186648915 21.802040901154502 19.12705554156916
K 11.150125376637096 12.893063786431016 19.157605452748133
K 14.273479607708149 18.818995594300155 20.353343247508356
K 9.85731274925652 17.376028769401678 19.615832143459098
K 15.511891213530676 14.212858992170702 19.788277880987224
K 18.082811139402384 21.477943182611536 19.218825013169436
K 18.51853187678385 17.29866060529715 21.473555774220817
K 21.447097261719765 13.906240313299913 22.48153194929694
K 15.404938933060475 22.57169005672628 22.80608526339124
K 22.996618210621115 18.370165979839506 22.18634149436883
K 13.956998259980544 10.937470659814018 22.230950089932787
K 11.322947473194347 20.10604620093166 23.354960568266506
K 16.934660015896355 13.937976693981739 24.08236467018222
K 12.48388880178761 15.449097768938653 22.942587879359223
K 19.509979714946603 21.040121596582672 23.70007106337542
K 15.558828374186142 18.43343618071409 24.836165275011265
K 19.95955670080476 16.971154305434972 25.638319587509667
