54
Energy = -45.52531815 eV
K 0.8432992381414824 17.534338412628426 22.893820490850295
K 2.5803020294775867 14.088735492416525 20.18822854242044
K 1.4973157511070232 15.185183329079658 15.909807230068195
K 3.050902650774574 18.64763541189432 18.724747090738664
K 1.6255279973954393 21.996532405094126 21.321802900130553
K 22.143375369090794 20.539223740250414 0.35134235164836175
K 23.26184260447417 13.027956796464617 22.532710764955358
K 19.01461740415862 23.23534796956675 1.8572027955162622
K 22.024416078978327 -0.012819779582062426 22.44032058033513
K 23.52190934044794 23.643551176723886 17.612626201445835
K 23.92111381886794 19.41346733161945 16.006257404004756
K 20.534096282160277 16.70495359176835 23.208020939518025
K 23.9761918394793 16.884817202334833 12.19728233937253
K 23.153973409652796 16.300404351238164 19.304674652027806
K 23.196568523723215 11.900157229097958 17.864888647295015
K 19.051500033646555 0.3398227647189372 19.09364260647746
K 22.917466811860667 12.656528753103718 13.352352563561919
K 22.82489827077944 22.42509788273804 12.985304640672384
K 20.73087243145507 16.03427292056395 15.682478808464671
K 22.012191434036627 20.3220788529151 20.190475090505483
K 17.96779518324922 21.424376074319305 21.98475426379816
K 14.507773430419016 22.911459049873 0.4638835848963082
K 17.28138511353512 19.05661747934272 1.206687085091783
K 20.869779651409587 9.534233575284453 21.044834360560554
K 17.577325859796815 1.6720287544464367 23.1911477250661
K 20.126820966320203 1.0103405785335342 14.861631452293093
K 18.111181907756134 17.808586790265156 19.35282957043176
K 19.42025177937787 13.54884591623552 19.774107771977963
K 19.468087658311397 21.039873834927675 16.399187841405407
K 18.807694501309626 12.252508736165073 24.06569308778765
K 18.7205310125065 12.036140047556469 14.902599208802787
K 19.292064458761317 14.86895103085482 11.423772951440467
K 16.078411107946796 15.624719721060867 22.80658512045518
K 17.550626419091373 22.458266884558203 12.325560940672357
K 15.657388174905709 -0.10620046670831507 16.028739551687128
K 14.464332088586925 -0.1276451375840817 20.475372234387297
K 16.653182333631076 17.862086511330098 14.839766976998979
K 20.214261074623195 19.06566935777986 12.184148233807194
K 17.536120180467655 9.542218532159453 18.24708358320784
K 13.60072416860654 19.381642646767936 22.43942863268637
K 15.266006237228995 11.50715251676694 21.365527391361294
K 14.5022576400857 20.204361501623037 18.232434726052155
K 13.404263870556466 20.973330059945376 13.764498265617084
K 14.932606596592517 14.182381905691063 12.956009816500483
K 15.630764259908716 14.128706178567732 17.56467894188653
K 16.028723574019743 18.25303835120352 10.451914591591432
K 12.315469740964167 15.316985453915883 20.511460301313512
K 11.117649742141143 23.15874630165496 17.2260465985274
K 10.393431694821937 22.799098847505267 21.74087444819538
K 12.256017602388528 16.763456731399035 16.11525717264395
K 11.783299092315394 17.47025307398889 11.779360520680683
K 9.974830100260073 19.026979687952743 19.40311802742602
K 9.122926306106331 19.792871177078208 14.919310568642562
K 6.477831314611589 21.733949458242535 18.72677066518977
