54
Energy = -45.5811889 eV
K 18.656671511815517 17.734850277112724 9.01976957774629
K 14.03003901721527 17.786134792777272 8.262251398999236
K 17.329654475857915 13.772189811149747 9.154592439311983
K 10.74213819024326 16.557838174240505 11.527093288333921
K 13.27704654930277 13.506106645452988 9.771500243345388
K 16.707582242231275 21.26130680120293 10.244739395220481
K 15.281585371952984 9.679764563843252 11.459144735705122
K 22.237554935756595 14.855742187397711 10.180379037827656
K 12.395762360633103 20.69711560411858 11.685703380954008
K 21.656983524478377 19.509997465526574 11.379742760120994
K 15.238438416512983 17.16266384044812 12.217414046861373
K 19.671052968712473 11.16840522354435 11.303860276954063
K 15.502810966356249 23.52264032265158 13.832489447813206
K 12.478417835035165 15.673013477513846 15.63204088155477
K 15.927141971505907 13.099556730881279 13.821503265792149
K 8.187024920705205 14.753942367516679 14.851803717404696
K 19.914666409567072 23.458346554151646 12.314118063542528
K 11.436946792370808 12.009700184892859 13.299651269226448
K 22.489692026811113 12.435988159386225 14.318673369758551
K 9.512913689588823 19.123380809657885 15.06382640441995
K 13.879001025647513 19.855090919658714 15.847181787519661
K 23.75927950443609 16.70068930774174 14.332775092412447
K 18.55798170626064 9.454040354624995 15.007305546929016
K 19.46488836456903 15.689320531478808 13.195937313828576
K 22.45697439280367 21.081040027653007 15.41135831793767
K 11.1954335119064 23.337536090636448 15.245199016627806
K 18.193732656542277 19.88399671824074 14.278135109562225
K 14.098200831779193 9.65718874476842 16.24775712219899
K 20.548057327292273 17.515781695589986 17.398257377096257
K 19.085256826841697 13.346082331872852 17.198834250267357
K 24.72780971341983 18.58465312337735 18.41497754415038
K 23.448131251543618 14.231918878577456 18.349545416415083
K 21.826410845183428 9.945520297767931 18.088713778861226
K 14.205313532020321 23.599189285762538 18.668977798619412
K 17.19650479592348 20.24511614886611 18.91397564495831
K 10.487228021605459 12.26267631597933 17.993430123850782
K 21.379421379229413 21.065969889886155 20.309117897745406
K 14.822041427002842 13.319194788999653 18.660163283194848
K 10.72959760010313 20.851538998164177 19.09804877291924
K 17.46547643966676 9.796423491320038 19.634944125593957
K 9.29766489010677 16.55848884312568 18.88845852293317
K 13.591106848607241 17.4983238469827 19.716737004195668
K 17.751845665712885 16.052699121511324 20.67112423957458
K 17.76510170695864 23.683182457502095 21.656086348232833
K 22.001989541403937 16.903146946395058 21.73661004777816
K 20.50642467525763 12.633205270830668 21.51247635207497
K 13.080049666182678 9.782217244495932 20.74964265834855
K 14.214389129056556 21.08874012889429 22.41884522294571
K 11.812813869471812 13.986195941029205 22.015585433084436
K 18.39620667391061 19.61652353031085 23.38680576149382
K 15.97095604928872 12.531949124457077 22.978834557502463
K 10.608991139964868 18.3208792667437 22.864293154011225
K 14.819103549578474 16.89171180544915 24.01820569136562
K 19.0643253511388 15.34291862490843 24.833196771947804
