54
Energy = -42.54652525 eV
K 16.21530512055174 15.826694156622342 8.322003053021122
K 18.155630992350225 20.058052806452157 9.03627145312569
K 13.740028846198696 19.330309424222992 9.847998806796197
K 19.681826846207322 13.870274291480259 10.676772842882867
K 21.573347450263288 18.02576415642902 11.416235246658445
K 13.039893800070306 14.929768296492867 11.357855810551866
K 15.702547678049518 11.53960139105817 10.034624855237276
K 16.289854387386036 22.058611679262487 12.6255755964955
K 20.708837974415054 22.544380508808796 12.03053198790876
K 11.77321919058995 22.27881781523471 12.727390622483027
K 17.07037163434508 17.374471320335054 12.343744760966821
K 23.82785702008245 14.199980475679029 12.677573068293412
K 9.867486730413862 18.059010746377 11.840923777873778
K 20.757853805027136 11.150766629630967 14.274167363969783
K 19.60367042966338 19.797783240043522 15.264639749539924
K 20.24354812337591 15.469700960777093 14.711051395156115
K 9.379269399374223 13.872593405848264 13.749783869837682
K 13.459078582303746 18.61387134299482 14.375613382331691
K 12.69866229637394 10.756698630913375 13.378600594577659
K 16.78941483701383 8.78268096533892 13.726483192521465
K 23.82813572213613 17.872224416043384 15.461528358939837
K 18.90909479870277 24.288175703701267 15.825861754886159
K 12.993721294846253 14.435756967741773 16.126479729355754
K 14.411153897014065 24.826357443674503 15.588565273157876
K 16.556627091165456 13.158380970276434 14.021701047874329
K 9.485392769546374 17.67422557218364 16.43056233417562
K 23.030657866623937 22.38508031915048 16.156453176791626
K 10.459193902634661 10.998444036973464 17.306897382887218
K 18.73886374199861 13.016054595420503 18.036848596129158
K 14.871452881219161 10.28793266424274 17.50583221947602
K 23.309957444700437 13.635549543331717 17.224482683627762
K 19.051854130617777 8.631724858523807 17.778118671913976
K 11.45677160942798 21.749465617851865 17.353533249307414
K 13.192155022076733 17.982206644039792 18.725042691668172
K 10.441492774691989 14.804367855923314 19.927188429779623
K 20.639352833372214 17.084802916414827 18.79581542181641
K 24.080236589233927 19.624093591730766 19.755047965418868
K 16.62535218298927 24.5972970825204 19.757243447847838
K 15.99393496558761 21.05697882786189 17.289871933784628
K 21.62939085919265 11.160589098511492 20.780318553809416
K 17.044689237026326 18.37869788632574 20.824975283273677
K 20.14584776255852 21.787505638741163 19.554787624322273
K 15.171074031779343 14.298011418732003 20.117575741910912
K 9.610148929105907 19.26328091936917 20.759362343234248
K 12.666597971717666 10.974476772200385 21.39124412181572
K 17.190259247988145 10.436847420867625 21.520271079131415
K 23.573386601146556 15.299893046137376 21.545176007272694
K 13.653822359738347 21.402701457435274 21.410399223704477
K 13.006131469332301 17.108342270422753 23.011055905958195
K 21.051602009142623 18.780189985291276 23.04850907895836
K 19.260438482462526 14.512946380630018 22.58323250558224
K 17.797407993248598 21.919825545258053 23.37129914309986
K 17.14878810399167 17.595349375735914 25.109457802357337
K 15.344139295190962 13.379221928996545 24.434250802766304
