54
Energy = -45.32632699 eV
K 9.325105420617904 15.771411000555803 13.949095911804909
K 21.368320075617447 20.037575338031616 25.41093005431458
K 23.43350981934461 13.790954849441277 16.534340692673275
K 17.12930109465843 13.05797277198356 21.10869893959861
K 10.344297169411746 9.113297758836143 10.12332907429957
K 19.76523455115332 21.267544828611733 12.163501027299674
K 17.68746564812601 17.833862393313474 14.066746709272854
K 14.932193524170017 10.316265950120608 9.919845856979645
K 16.48468192436343 14.781115638451169 17.154487112909734
K 11.575542099251185 17.60257729561689 10.280284600834195
K 9.103978719195032 14.061392195804459 18.254882608508524
K 17.26940957834459 25.87612982461991 17.89510509764081
K 19.82645979615088 16.938522833824095 10.393134657676733
K 10.664481681740094 18.82284711218264 17.124005874674683
K 19.364920771837955 16.26168391470103 23.780843063279413
K 15.87869741080679 12.581356572579793 13.519002892520131
K 20.660059073266243 24.642879974884917 14.98590043865943
K 15.678064770359926 15.214363725515517 10.150717102093129
K 12.95606337113689 9.021916358882612 13.735792596275335
K 16.774709552457306 20.287970731103982 24.1325306574243
K 15.667584303416218 19.870158443071578 10.823161934881945
K 19.793407444129866 14.214580412817808 14.15627676717418
K 20.426745849264577 16.60370796330313 18.179719514578508
K 14.82249016758612 24.505529849046017 22.59369269659507
K 15.031563206847144 19.455574712957315 16.95044752335519
K 13.19226749396371 20.18799071524073 21.189460867665588
K 21.569480651269256 13.378563661730686 20.929231738720823
K 22.20588690385055 17.957038812849273 14.301123867638852
K 8.908967906943444 11.104617267923038 14.04542823510697
K 21.841572868545676 10.346929837439381 13.641911624526427
K 17.638886885188956 8.785109683961874 13.553368666542838
K 20.366225237771165 20.198568652220317 21.26552975820359
K 13.585053950317377 16.589733090571716 13.970891908028017
K 12.402954712058033 12.99114168059518 16.03085652637677
K 14.72549711826262 15.818423263963913 23.648012027256215
K 19.577566766983015 11.42570311517194 17.447493558236122
K 16.259042445993117 23.10466272950754 14.22458879673367
K 13.02219507712291 16.06159291899559 19.389466263425383
K 21.15289623914846 24.24185070446187 19.377569501377838
K 15.355877221274527 10.140045183947374 17.487831192533353
K 19.397219651133096 23.95250298800206 23.48381295019429
K 11.798980708051358 13.125578473137795 11.317454005731546
K 16.926474416622177 17.713641666167394 20.412080208183692
K 23.489868145183156 20.47471665482538 18.282175470419517
K 23.727031669469728 22.51522041229381 22.69869297232217
K 19.4144996733087 20.865433011575337 16.74511871912818
K 16.94363875024106 22.246100095927115 19.93942567470624
K 23.202674481290494 14.106433877206543 11.628034351570907
K 10.715813270874222 9.308754632753125 17.737362042490613
K 12.770981542544577 12.045300120552234 20.727419870625074
K 19.192477558854776 11.979805020784273 10.318268797492202
K 13.303124875714783 23.334526058699392 17.66381322735198
K 23.44692459873987 17.53890603412906 22.030668853793788
K 12.34017911032512 20.968464139407693 13.564981872591822
