54
Energy = -45.17177329 eV
K 15.135591218646496 18.87683139188517 7.4276072527732415
K 16.846934859865367 14.68842950141383 8.056998180056956
K 19.569992961893607 18.497136957216508 9.24162117426404
K 16.43781268558553 22.005107060545413 10.618724673755981
K 12.427448743617544 15.471844175107059 9.384337320626727
K 15.348107006189796 12.952588836448799 12.094495621153598
K 12.23072234707132 20.106795058326025 10.850233396697368
K 21.0763103767905 22.3066325540628 11.665149204727705
K 13.441892117625613 24.121644489035617 13.67579139829552
K 15.943739221746279 17.31779206686036 11.207804725018862
K 18.228087462520584 11.886075013554333 15.468464670331477
K 19.77123962486475 14.820218599055002 12.408842921177472
K 17.803086805086973 23.438736907784808 14.825056451754426
K 23.01195494310092 18.103990080494388 12.891113317703711
K 13.541187508584068 13.17702052210945 16.548276317057123
K 8.821281354296703 16.75300487343661 12.272581213409406
K 10.856611698498027 12.623779993797442 13.001162712909318
K 18.992097850433247 19.26489032689759 13.530668500698527
K 14.84872475827226 20.108926847071825 14.454363585805519
K 10.480191057315992 20.172865852534247 15.128794806729195
K 14.342244433148828 9.443466551083034 14.942042379635222
K 12.64236992120186 16.49770376541458 13.792245594638612
K 21.861668635256077 21.277084843331988 16.02788158243732
K 15.41252740663402 26.169254658348766 17.59315031309204
K 22.938127261200794 12.967561017716358 16.28766113381517
K 16.703642840871527 15.999168469618418 15.484168858126413
K 25.12676984792897 17.683234792636096 16.90681915317761
K 20.360007158306676 8.99239756743643 18.150239578026127
K 17.84113538930104 19.564533059712563 17.753173439481962
K 20.925590807504452 16.640112373999557 16.790418609469693
K 12.991933026433424 17.76412859784735 18.235432502289317
K 13.98217667778175 22.226520163861505 18.03935594119473
K 16.02231557605556 15.21639968393839 19.710717158145016
K 15.90134514782833 10.527961694120231 19.32808607633897
K 12.101778505132012 13.358231731428084 20.557344554295526
K 18.808759486077523 23.308517297072274 19.37535954125394
K 19.78565298053105 13.059431506594377 19.50709015472107
K 22.533396822465235 19.913560056672978 20.191243352413885
K 9.565215599284315 15.371466192640945 16.634455418327722
K 23.674742479462537 15.457786593657245 20.33624988030192
K 23.366679406915875 11.07159537224506 20.94653672462059
K 15.801586835354657 19.484145350829905 21.35628851837628
K 19.553936795409083 17.07820598287443 21.238603318235956
K 11.657288032030568 20.53033965427338 21.660861518424706
K 19.319691840378237 9.669227896323921 22.396845884842264
K 13.421996226678788 16.588138401772614 23.365485226041233
K 16.334968646190944 12.92529399094602 23.284560219275846
K 15.303509368216945 23.713009404325092 22.01812212006842
K 19.16313134697327 21.058410752388014 23.488985919346035
K 20.716944678917223 13.613506965172961 23.971702451202983
K 25.08128062257095 13.893998083664654 24.09918170764402
K 22.4852707700959 17.75505935080251 24.366171672844146
K 14.87309716512023 20.579203810325282 25.34513852388539
K 17.660515321463294 16.981344920016614 25.14060518979123
