55
Energy = -44.66747231 eV
K 7.411136643288214 7.0784394055819115 4.286421015601127
K 14.13417831718239 5.067523068833571 9.712173353329785
K 9.927341851257246 4.476650714174153 10.81696007903704
K 9.52096867520221 10.816674769872309 7.461138314607425
K 6.909624699690201 14.275012856089662 6.555780998781962
K 10.555394851249572 13.687953877731525 4.022097351281715
K 7.266008722083 11.259936581402295 3.2092651837941526
K 4.113263416350034 11.565413365405005 14.046937282414708
K 12.344149479443024 9.829405225607713 13.874953336418793
K 12.865725713283107 13.370557316791334 8.634600907861126
K 15.45662988773744 11.732725921564178 11.571973762673736
K 12.95342378676382 5.3123040785568225 13.949578281719194
K 5.335839832940897 9.958415262957244 6.822281067002355
K 7.356915665689909 6.967680310568878 18.65548241424176
K 4.8120301584790806 7.460896260087318 15.148585037182439
K 19.21093502328593 12.148848275155023 9.717326481492645
K 15.467192399537316 17.540709315509673 12.709693524325576
K 18.219758708008627 10.290278641760375 5.939505049631666
K 8.344895900884467 12.980754657221665 10.868491851225327
K 4.5094031053027575 15.735125733074367 13.141284416850905
K 6.673546960186427 5.895334942349445 8.183614764764208
K 12.267790636710796 18.282730414874695 15.44810288968251
K 11.131425633934139 9.183621015686159 3.8489574157267707
K 18.593708861697312 9.647350222068102 13.428356524008759
K 17.184088283887295 14.383684857977613 6.697595271698645
K 18.637848645807424 16.51936157119054 10.124518140532288
K 10.529777708105547 16.81867942492123 7.161275827548048
K 11.950033124402172 14.033949073729522 12.867344357661299
K 8.390444055709048 11.204405562962169 14.603221872976837
K 17.487531165857988 11.757038360691757 17.033114386611096
K 17.087025812054968 5.6265718844216925 12.821264083218974
K 4.534835955321683 8.607619194314797 10.889094241875185
K 9.074480941494238 10.982848698239588 18.72730065640359
K 6.3846629331225 14.207827417272629 16.900265105614977
K 8.912284631301452 8.71418125519636 11.215645484723057
K 14.755403205668909 7.761951097956971 5.883714313647243
K 4.28673962836594 12.809983123886148 9.888390914151122
K 14.433105976938645 11.871680433308635 4.59753175730696
K 18.283305443562107 14.138556107534683 13.61373391764238
K 5.725013121343314 4.643493487098671 12.089527832065434
K 15.616774765236467 7.948568319877165 16.159098796669326
K 8.79678254163613 5.836938232195105 14.782177777689595
K 11.52571548432174 7.296569048580372 17.645099108270138
K 14.643815665507374 17.34879219503347 8.533677593997348
K 11.323493779991779 18.019023478010855 11.26909384476347
K 7.310122887782189 16.920411582524316 10.009171704940021
K 13.30753369557887 11.252069695588798 17.896406581313997
K 8.306693457213571 17.082466079287535 14.307297396111178
K 13.943984147757005 16.177575478885093 4.454490643650872
K 10.685443783612696 14.679540038496164 17.203267143783805
K 10.9162953737069 6.030006922038695 6.911229392005433
K 17.61384818578242 7.970926274193091 9.389072135919209
K 13.00500900059031 9.069915143452912 9.476061785807065
K 14.865434750277451 14.990881697024221 16.25285591294269
K 4.774907917873483 10.403867031185616 18.21762571480336
