55
Energy = -46.54986887 eV
K 17.14976613144526 7.627683453936408 7.8218079275195365
K 19.03574965450305 15.313458600522182 16.41134028174457
K 11.144123165313838 11.494168754363724 16.918239416685974
K 5.972804597711041 14.945380706733703 16.816915557422444
K 10.090170854951088 9.71607850014168 21.247671885775762
K 17.9036641016318 12.272421289220587 6.017248523095527
K 19.681800699564103 10.964498834325727 14.79380099485494
K 13.46302842058107 12.839097776766163 20.904101129670167
K 12.485311542126153 17.154887916036465 19.752421402000437
K 10.428590828801 10.09643623024203 8.59024385382225
K 16.08614355577654 19.042481692147888 9.029896854485866
K 11.553161024312605 20.31344919636492 16.450404418463
K 13.058138814966165 17.919435617539232 5.60898501169969
K 10.43489864825849 4.114826388815939 14.15800990667224
K 6.348941995197804 9.327113360553446 10.438592302847084
K 17.500532298679605 11.675095903975828 18.83438147101924
K 7.114336309728714 16.39350497181983 12.34600059482073
K 11.0783577433471 8.792017633517792 13.112786608624853
K 14.561635987563443 14.546125355341792 8.385461599407195
K 12.694354259298153 6.3990202603665605 7.09509522746545
K 19.06991144452072 15.595298597123321 9.039857296050547
K 7.070524242043683 7.416900958380574 14.367997803440634
K 16.773395920512876 16.019629839979675 20.18911518182296
K 15.854977515305652 18.909280237396974 16.679968663737316
K 9.736813159357316 20.145018094936578 12.342719355057095
K 6.799107163489075 10.441543689834697 17.941034407407535
K 14.654185797794463 10.229947266758298 10.26343784033416
K 13.817350588226047 5.601163453202015 11.199721972683033
K 10.454997382662917 16.97968046677756 9.173775373485148
K 7.493613731320017 13.421182821916233 9.09121621103537
K 10.814945069363821 13.788773493960512 5.953339942339236
K 15.104746527439103 10.310976408110294 14.969360781940276
K 8.979522633898986 13.95873698692066 20.162887222551042
K 9.290356129955967 5.923708847873921 10.13744498769545
K 6.869723463172985 19.387152685053394 15.659710992982111
K 10.102521870820835 6.960473778299738 17.616258577934587
K 14.517914863980856 14.548897370079423 16.47478720946607
K 17.637023184282928 7.459899079059286 12.55303843134535
K 21.305256497544487 14.569368245237467 12.678171540263948
K 14.168832917880176 8.592855591290807 19.39346233132498
K 16.698835015044892 13.845430930364056 12.562010368848895
K 18.111809189194545 7.475323044824246 17.174557205876994
K 13.597972785941836 17.363588474422013 12.683083243911554
K 12.309648443797323 21.11976227800237 8.963056042445544
K 14.577369059038949 21.60812273171314 13.030847899241504
K 8.230224961980035 18.27765099088892 19.619492581385874
K 10.14713340299806 16.006928939417115 15.705415231734223
K 14.197899225361464 5.952140442783068 15.676531624902335
K 19.37290684858591 11.040881712462054 10.113009216842581
K 14.561005061662902 14.184996834819026 3.3960872750361952
K 7.600906629089662 11.99262539261612 13.780556814733524
K 17.527440012457873 16.94183304265257 5.2213377197937625
K 13.84931750655937 10.329037742905157 5.500708061049283
K 11.546724215010416 13.332066100707582 11.972831177067265
K 18.274693794123873 18.22705787467659 12.884881334313867
