55
Energy = -46.13958195 eV
K 10.007679872095583 18.516012629734515 21.318520754897193
K 21.496013765327593 0.3444345262592651 20.896448230654944
K 5.574206585904025 -0.3736288408768707 19.074261247064232
K 19.12141227147574 23.978117641368133 24.297749264678252
K 14.936051224165883 0.039542605859329304 16.225557039281387
K 14.22813926435772 -0.8470076821309385 23.501339946315532
K 3.37412537979623 23.146892859036644 16.080215928919895
K 21.479137219529264 16.958688724641615 22.00997051595738
K 18.605650232687477 19.070876868082475 -1.6913953436992972
K 5.98894860500263 19.4275674802065 14.3962342697957
K 14.927858164383478 14.586045893132233 17.72859898398819
K 16.51852670383561 17.11129983162666 1.4954800520458467
K 10.27616378543027 20.17930941065315 16.817324514461713
K 7.091721479492987 15.113356838772402 20.929196843168686
K 19.402781439666363 13.811258013267146 -1.4903970200269414
K 13.799201235269628 18.578467074798915 19.41126374246209
K 24.998013110109518 19.766331389238164 20.627568646968562
K 16.004529614053205 21.30162296052014 21.95966581361073
K 12.186205063830068 14.371203420883292 21.355689494608587
K 13.546084955294004 17.939142811296005 24.304916276759336
K 21.463062769884786 16.77782295514002 1.1150890784953522
K 7.6953529553875075 23.517161128433997 15.347376185305807
K 14.947567222608006 13.469821199880544 -0.7163392107774814
K 10.453343840212392 0.23532869356941405 17.218123000506303
K 12.339913670923174 22.993502985403886 14.3908076762163
K 20.742862324197652 21.668117088902566 20.859929992928528
K 18.296123081844968 18.307657339309365 18.68443160171798
K 4.85116643425644 15.51918404892938 16.84420021282152
K -0.7695987685641914 16.825906663987872 24.27889227870503
K 18.66540590110793 13.465275128582164 2.8195877515474828
K -3.37460809624697 20.525970554568243 25.03030059939156
K 16.63019085212542 15.69205388531277 21.858505044588256
K 15.307698357711562 21.695046283810832 0.3683090817552228
K 6.02316702539408 19.066307390978285 23.380460749360672
K 3.3868657464329996 21.700321225744467 20.31348532123385
K 6.39280492151945 19.09259248622607 18.693049964138673
K 8.561219676592934 22.781497297579087 20.015320602909334
K 2.252272186479383 -0.7416713765427582 22.394803906977682
K 16.258217163676864 21.744348572459163 16.809279171964743
K -1.9510558148715196 -1.9778761687035509 -2.686387723672251
K 6.1678789103551575 -2.5996859092021314 23.576106333478442
K -0.5517021803344612 23.910511669537065 19.064950802284283
K 13.84043783013616 18.28029434139598 14.953598933707344
K 2.68450427807579 17.001128768960992 20.92276723780556
K 10.179354719682687 15.849858217149333 17.33277877898841
K 1.5216891652876787 20.965881173269313 -1.8895980892712148
K 17.51773078835105 2.2749156191453173 23.145358561239405
K 16.44758381147031 4.136784123979857E-4 1.0860935775732081
K 14.975918394723982 6.34355392783405 22.183712132476547
K 15.365623765303988 10.909386651445223 21.622709573426075
K 1.8581019375784398 19.02808093384867 16.840265742006583
K 17.373074111528748 25.037564423699006 19.873338272013026
K 12.929964214366612 23.41528093754393 19.44225249923573
K 11.146184696254949 22.022414499338893 23.8902864718059
K 13.859642218673635 2.2352966219120427 20.170337498177258
