55
Energy = -47.22989711 eV
K 18.45862770399732 2.385875927191704 0.3752042995998657
K 20.342632837562316 5.662751421021539 21.421152772659124
K 22.11054299261121 0.6993468080106823 1.8398418666430838
K 22.24148839629099 19.96233526364523 3.157935243032317
K 18.061448266370135 22.085874228882098 3.311477446918312
K -1.4712047787869238 1.4599941167610617 20.79081478160806
K 0.8935460278575501 21.318850729784277 -0.8209195451569522
K 15.125140995125497 23.254495642248767 -0.20315498416783045
K 15.814920470860812 3.918260623489879 20.80855018924886
K 18.771723716539167 4.2343601444303385 17.120970463469412
K 17.985121203314613 0.30107267698894535 19.39437724293854
K 23.02567427345407 4.979103230662894 17.680411581440723
K 18.784436625633205 17.43734017452102 1.839863824286536
K 5.487268912450455 20.086935216761876 20.977587092983736
K 19.611720040314196 21.177862478438207 22.849922233642875
K 13.59493379252925 22.8491695555571 19.085712461607095
K 11.390668257476127 20.594505442421784 22.442064619001705
K 22.861785701805157 16.949295313227644 -0.18056239255708265
K 14.719015431025069 19.14006633218007 1.8220884017567291
K 2.053789453430913 22.461663698503866 18.494514204029354
K 21.38233082930025 20.609992233564963 18.835592667928196
K 14.400242575352234 3.1103230310124377 16.592797084250268
K 1.4700883650907288 17.960031240156283 19.53593369546392
K 21.70910952255305 0.558062519894309 16.203309638241976
K 15.6447177210064 19.335091779373016 21.060266668370545
K 17.21200702567533 20.027697941815394 17.10335686151094
K 17.291089651710628 0.1846951067801305 14.755442886943356
K 12.860289204540786 22.54110256543445 14.87375640004941
K 15.60254949415882 15.129569013432375 -0.5340404180561191
K 11.924561446616682 16.452912820274157 20.64120248906088
K 9.38039431442947 19.896166662860235 18.424273384690725
K 19.401251078049565 16.618904019087765 20.787549278636845
K 21.452747983781734 16.609793954150742 16.907373304699696
K 15.793022730841484 15.50735958924171 18.412538586267313
K 4.995216987879223 18.80345981911536 16.769551493070583
K 0.720986503072933 19.850241592017657 15.090912701615306
K 2.043732331566962 15.46476076684071 15.68351331409881
K 14.505241446643392 11.75295324494518 20.096097551182687
K 23.03168601131549 13.64732811829067 19.861054642651595
K 19.135431309542977 11.80371127582867 21.923866785493164
K 13.066822693274023 18.365215584050034 16.40893927391035
K 20.083586691080285 20.094923118907417 13.62871508733927
K 15.481908344545749 19.52121133438458 12.697745573355066
K 17.848926482991143 16.155217978938364 14.741737875566297
K 11.867790374509964 13.923665725983412 16.87066807106822
K 18.973533697383317 12.520476477402667 17.668782410041107
K 22.08670966510693 15.86320316679457 12.523569930528547
K 21.945326415107704 9.1954379199169 19.12702987807519
K 17.304349726891324 8.235881858331565 19.1332952195452
K 22.501151631451542 12.080236709737232 15.25773375063881
K 18.023338350381792 16.40217291632695 10.403116139225368
K 14.186585341281466 14.91265468664617 12.936194118444703
K 15.431399326740186 11.237052984090216 15.487717707107949
K 18.754669445762524 12.432621450930974 12.536215887156787
K 19.552766270014338 8.457712238745215 15.136619008700086
