55
Energy = -46.63350216 eV
K 5.083086929163419 9.80916213389598 15.58890342563092
K 16.673358265851274 13.801402392528837 10.19064135696222
K 13.10988778898954 6.923471559149645 17.788482932991908
K 8.783539367360907 9.9936118068124 7.985129951870599
K 16.74487143663909 14.120903378453706 14.873879796879274
K 12.710542604525436 13.08689733094621 2.0214825624938633
K 8.68584827493069 10.158288951885044 12.993815312703296
K 5.0335749493796 9.730271336407412 10.519657941042208
K 12.711997377029348 13.676853506549357 7.956721181254138
K 12.898451770145464 10.883495850574363 20.31126566884729
K 9.036251084745025 10.428209938375542 17.882619873020353
K 12.851952855377744 14.322290963100428 12.613193784275184
K 8.85837709924416 17.278596441702636 7.466962248237702
K 5.436209704913839 17.229230894067438 10.438862116332757
K 12.930040670109305 14.189012189343938 17.370922081026812
K 9.351287031521114 18.127887042833095 12.500841170054517
K 12.676450461765912 9.983569301204783 5.542589442608985
K 20.032925909893958 13.077357936984844 7.630490763025592
K 16.50690689049274 9.698053321501083 7.983739956689543
K 12.512714799325403 10.055449991853314 10.52319516961125
K 20.907954072246373 13.417128470329184 12.491830184024366
K 16.349601155675472 10.1126439475306 12.742864674472443
K 12.63931618645694 10.324907286928331 15.190920905414146
K 5.460410019323103 13.425848686417869 7.81441386340456
K 16.56109654748071 10.374564452409636 17.621692062115542
K 12.709571480375665 16.73290229299732 4.903132007428803
K 5.6332016890394 13.793969483721177 17.761126866812262
K 16.698719924062424 17.101947793268923 7.3163438507758
K 12.844901682072477 17.800701502905262 9.628734070401823
K 9.4768466258802 14.20482108120902 20.317561764534986
K 16.53375143788244 17.971473078870016 12.289098834981354
K 12.970217263585555 18.136476016732477 15.109546909691483
K 13.074833767926735 14.499583353544953 23.212588468721716
K 9.113606475700267 6.3453313665256825 10.625070567968296
K 20.2159945086355 9.436351631851085 10.53238108586857
K 20.22900173664099 13.791095990605196 17.397667903850092
K 9.113164566381151 6.5325759809773345 15.561925359825995
K 20.203081256673606 9.794097139706597 15.009104766504443
K 16.525325572739007 14.176786332898608 20.113607844446253
K 9.240569099500906 13.435069866642307 5.095973516974327
K 20.323347690055773 17.0541487214735 9.965839663435341
K 5.554771225433131 17.42452608637832 14.892362620268814
K 8.899515113289361 13.942048504686127 10.418467572431265
K 5.4466024333575485 6.1632035637294385 13.081276494252625
K 9.096567852419353 17.805366777557982 17.5767202553305
K 9.054916692405122 14.167961819347697 15.076313534027994
K 4.866886673114091 13.451125568490998 12.889475233586877
K 13.05088150918858 17.69153488646819 19.875343071501735
K 17.063013732573218 6.158266470840521 10.83354783763996
K 13.10988909583031 6.338106075674027 8.361183344196856
K 16.932923791162825 17.773417031645568 17.319649088112936
K 17.050655721930145 6.518082503456043 15.290341123412144
K 13.048684180232724 6.095645348055426 13.08581723462632
K 20.37827463955125 17.3950667530607 14.523751536204236
K 16.184346809774386 13.229925364893678 5.081646647197259
