55
Energy = -46.59308439 eV
K 4.994559395912304 9.815598274371904 8.150128250804215
K 19.71168548523836 14.296471046537787 10.996120714609013
K 15.304919617155957 8.753823263708725 15.27491927954241
K 9.3483874222396 4.688274183688461 11.388209842096922
K 16.62173210567647 13.795705053964474 14.927147701852652
K 9.835012807096241 8.996789391380169 19.157451160261914
K 12.612549247168245 12.188710295319645 7.581939975011831
K 11.78795949169798 16.339514403749636 19.29825042808634
K 16.686227790760263 6.739638268023064 11.235156295544437
K 8.885583572327784 11.01317602066365 10.208810007898407
K 8.485025321352333 11.19590298772654 5.410467345850664
K 10.610959733373898 8.766192153647184 14.264611232220716
K 4.906294102166393 14.248009516776023 16.018379955361993
K 4.718303505053418 12.09130339235648 12.11049203709434
K 6.431660713483058 9.86291659816319 16.165830032126333
K 12.793765704274438 18.8037563261436 8.600792594428132
K 8.0332366965641 18.573598727605624 8.514268439712996
K 18.4528874593038 14.512726542077958 6.821630468701659
K 10.127643697698876 19.355685378808538 12.437959412661282
K 13.160862542397862 4.942187592415822 13.376719932589792
K 15.18249885602672 15.296402009092233 10.463948197874855
K 12.727319609457096 5.9944891094028305 17.694905066720576
K 8.511613446979183 5.450697498888758 15.856700691893337
K 12.495714435858929 16.00631403505992 14.510424347381075
K 19.02970133205387 10.207260005385715 13.121766345758212
K 16.779069583014707 10.99344116582906 9.304199793501068
K 8.419578619804643 17.20840436629993 16.33453636104263
K 12.552575083197285 12.142398225837672 17.129450803960072
K 13.348700294117856 11.811191544323703 12.427493436453913
K 14.620381660700518 9.380072449169258 19.988113103076078
K 8.34453611183561 13.28367941236742 18.89522710557122
K 8.943988896685036 13.125796045098806 14.25145948414513
K 21.356875069709666 13.500255615441011 15.016608057475539
K 18.834722604917964 17.63276388034941 13.888932074344565
K 17.722575197635038 18.464965343395367 9.249336482807124
K 15.65062110029248 13.945931268132641 20.05198628653489
K 15.701924850896903 17.7931438244816 17.313132513278497
K 14.860274367995316 19.524132460561606 12.778600319838528
K 10.024720174384468 15.581738698604319 5.784498023677481
K 12.55481520405723 8.263440347857987 9.99258794010621
K 12.06015545674938 20.15432968986137 16.451926743509844
K 12.122421662314816 8.369831697445699 5.056467334142609
K 6.3687214342934455 7.752882204316855 12.103606375527308
K 18.461890453634574 11.002249345380847 17.865570145353917
K 16.023951505407563 7.363587308452688 6.839844688254249
K 14.500919200240647 15.858843015390466 5.635462843431062
K 11.716511381235982 12.417354302921979 22.07028722478469
K 12.039216534740103 12.605492102277337 2.639295187676007
K 10.509129951014343 15.247439436894783 10.375953676452777
K 19.42435922505689 15.625808759968567 18.265738255899777
K 15.92657459391179 11.361533879706851 4.659914175042088
K 6.414539553325625 16.39880066055253 12.231749377493264
K 8.643410397544065 7.101381620501563 7.702714535544985
K 12.832538453966839 4.397558538829025 8.411419342323862
K 6.264818566779206 14.237031995568517 8.177479833442314
