6
Energy = -3.35386876 eV
K 10.300238845900338 4.0994073262131043E-4 13.81170633274449
K 11.343751944868863 13.26642942656307 12.681976486498863
K 14.422080775711105 16.196203600913698 13.704604567094366
K 13.762748035012367 10.436755405330414 10.504209650553982
K 13.036541382946556 10.116488768205393 15.291357949251216
K 16.352172521227857 12.27251021486811 13.472856927324774
