6
Energy = -3.63048494 eV
K 11.287778060850057 8.978717 9.72654415962581
K 8.978717 5.253414978416474 10.635226448096445
K 8.978717 6.738447665114801 6.5743803922777415
K 6.669655939149941 8.978717 9.72654415962581
K 8.978717 11.218986334885196 6.5743803922777415
K 8.978717 12.704019021583521 10.635226448096445
