6
Energy = -3.61578004 eV
K 10.305288338697723 12.41836336293633 11.452325723670493
K 12.490304378734125 9.387752372878586 9.2357618861619
K 5.562941823947436 7.665239878996808 8.356209490811748
K 8.488038451068917 10.996662828341154 7.708020755562774
K 9.580241804521764 6.682709373319799 7.097559102903721
K 8.826407358938363 8.102494339435912 11.403345196797437
