6
Energy = -3.53397679 eV
K 11.89400360760781 9.575133417296968 9.811953036275495
K 10.666477936805835 13.214503582576091 14.399311961635496
K 9.107786105258931 12.727413927231698 10.315672898526476
K 13.518811126360234 13.62605954880138 10.708138672130854
K 13.586928403401018 10.082482585460472 13.849595098389337
K 14.967611996715918 14.140424749001065 14.886431652559336
