6
Energy = -3.42709327 eV
K 16.81411775191995 10.516283267361015 11.96729320960466
K 12.491832883518065 10.79387505291863 11.870499650574347
K 14.856610910556958 14.218530840391937 13.151000949688562
K 10.865863770575116 14.94022963389574 11.201695128586417
K 9.351802703288483 12.291111962535346 14.645513871525198
K 11.544864120488976 15.740154613230866 15.681733636110778
