6
Energy = -3.68271557 eV
K 9.727561036844756 5.221714774669059 7.505996751581124
K 7.092360735515815 6.188019476658088 10.5067017132855
K 8.596294811653486 1.4850991139948233 9.352158851898892
K 8.657828566353757 10.086635161853035 9.626031271296249
K 10.461244454147726 16.64179621242503 6.782412839082594
K 9.33426245587112 14.246287320786745 10.096250633242418
