7
Energy = -4.64524524 eV
K 9.97509620713442 12.234734213532102 8.638643664613513
K 13.742007665385774 13.011088547036772 10.86782775086835
K 12.605986506965337 8.870854105105117 9.731189144258472
K 9.98007746178708 15.168502293683375 12.029835553641572
K 14.278749503898178 9.63988410058688 13.834333127103653
K 10.010590179586096 10.737386466326653 12.922722440412388
K 12.622632005281723 13.552689803768242 15.190587849141439
