7
Energy = -4.39923344 eV
K 15.887619864733102 11.454684019587424 13.652653187299517
K 11.559769641208234 12.57853961113352 13.977275676001796
K 2.6418193017833307 13.605884567801757 14.329688745608818
K 17.357432560417884 14.765147877556274 16.066349849422487
K 14.677084650665458 15.741216984634086 12.726428800462674
K 6.959071932845155 13.958969874450021 13.851007572318158
K 10.322778222259188 16.56166276241993 12.727062529373981
