7
Energy = -3.6673365 eV
K 14.206410324118353 18.07964617726776 15.978146217018852
K 17.71532069697588 15.176203840680424 16.328739846309922
K 15.872614778094471 16.97873343173355 1.2978107119884994
K 12.196040887840857 15.116721353330805 13.592375088361482
K 15.57166282332166 12.368982154779214 13.82694617253494
K 10.678529761321109 12.862636800419263 10.320215017152172
K 14.14518309923401 10.257425131170876 10.414322945068122
