7
Energy = -3.35759364 eV
K 13.30937411981341 15.321443418822717 10.4705638089192
K 11.135532287727564 15.357345212346331 14.094904497425848
K 15.17901229604731 17.166677944055593 13.75822282176071
K 16.788218714948208 13.434030109491829 12.231645604614595
K 14.568776415701219 13.344449810630095 15.79168148683548
K 12.645556388957065 11.584125013530855 12.539039773343422
K 15.682143070860954 12.53817840013381 0.9280498808882274
