7
Energy = -4.29553056 eV
K 10.995598674864693 12.045376556187934 12.058923652335556
K 12.943455250229743 13.57338229741783 15.776577928875351
K 15.46688124244696 12.04353875511368 12.484360823044073
K 16.88298033245487 15.616062338399823 15.082048775583369
K 0.6018240585931878 12.102142553153527 14.493534158715677
K 13.175465785237392 17.97508844091768 16.154229997801327
K 10.213213973587973 16.199745550366664 13.210406946677203
