7
Energy = -4.28006246 eV
K 16.037422788884193 13.662284910528314 14.0904621895573
K 14.328265416196793 9.6730771360262 14.055098926766401
K 15.94484156859748 17.327056398674056 11.820434398632635
K 12.6891352380389 14.738357815786681 11.111131172472078
K 12.702995022487494 12.69578355263756 16.745963582184903
K 9.469759606865756 13.346665581592701 13.713187905353694
K 11.2931859760104 10.663264236788907 10.893837271269833
