7
Energy = -3.68604581 eV
K 10.888767109661709 7.428850415298896 12.309386481503324
K 8.6945013 11.220908371178124 12.308129813996201
K 6.5002354903382935 7.428850415298896 12.309386481503324
K 6.5002354903382935 9.960152184701105 5.079616118496676
K 8.6945013 8.6945013 8.6945013
K 10.888767109661709 9.960152184701105 5.079616118496676
K 8.6945013 6.16809422882188 5.0808727860038
