8
Energy = -5.04214381 eV
K 14.914963254797135 14.646846403223932 10.540514459368083
K 17.611039190276895 14.904285997631947 13.864300125054747
K 15.247888062275637 11.227908957751243 13.29093949105798
K 15.362305006744224 18.643297795097723 12.729076142187854
K 13.28869423972755 8.475313293892992 16.09795669443506
K 12.42717793741594 12.79086093739519 16.255417158172712
K 11.763115207591198 16.12019881336383 13.44388175496649
K 14.533151793309276 16.64393478513684 16.68478341359606
