8
Energy = -5.22213987 eV
K 0.1595335972005707 15.866123225928856 13.217155957570528
K 16.20514486684319 12.191240195536347 11.859106102807264
K 15.522346860695793 14.105321605889412 15.956085882420538
K 12.54754787145225 11.0474991296391 14.71523171312544
K 12.093471689187956 11.41519859816305 10.26855176846145
K 12.976762036818483 15.22118504211116 12.2945525335264
K 8.782469078031214 12.677667566806141 13.231257123715457
K 11.097157287659046 15.018952073944666 16.317741245598075
