8
Energy = -4.99361866 eV
K 14.801557542613399 9.65311425807968 14.459074854702497
K 10.601453334932948 11.11053858657596 13.367734742736749
K 16.685690036157887 11.488888349692129 -0.0047883494841494
K 14.733370352746595 12.227138155448854 10.708866959949821
K 14.028117671389472 13.9955218340251 14.756142714627568
K 10.432947568922312 13.608066376617886 9.638549763633373
K 13.714574917109026 16.31777258367922 10.783076759708523
K 9.730602537056269 15.212689102548097 13.679634777690602
