8
Energy = -4.86682933 eV
K 17.636201328407267 15.820971498758235 13.155003450428003
K 0.3419000954567615 14.291072736346612 17.265194835045506
K 10.455960889150417 15.83247348227571 16.767712275509957
K 14.195069981903654 14.299183047218545 15.559870119889425
K 10.8938373181107 14.693372260640142 12.515468411638594
K 14.672056093619615 13.167476834564955 10.882407056030994
K 16.959978846899464 11.253257481039222 14.298675946035077
K 10.962679846189555 13.192343710522751 8.4026453825853
