8
Energy = -5.48960437 eV
K 7.9729133534930705 11.296015395821305 9.800513570932303
K 10.983159054118817 13.24164278237986 12.071367796705267
K 10.550560357296455 6.720650682288819 8.413743525172867
K 11.151085605733899 8.706411884287252 12.23803475349826
K 7.242108451655706 6.975366271029098 11.603496089241315
K 5.923070877794725 8.32214496889114 7.597461627932746
K 12.529604299592343 10.632786495492262 8.540806947033367
K 9.468760941700433 9.926244461195571 5.555838630869206
