8
Energy = -4.81711725 eV
K 1.1067503910979082 14.635870721060309 14.997582587040958
K 13.589431327623833 11.887641163953711 18.00587746570412
K 14.53147290193127 14.604963865648871 14.60452396360162
K 13.502719039644601 17.61423119170102 11.277717371542343
K 17.622882395051974 16.114029391418526 11.645145082696065
K 9.784658093499287 16.116384049525887 12.77985916179304
K 10.133180077392641 13.908704197170094 16.470115713562013
K 17.596579046826275 11.280573969203868 16.398256053289387
