9
Energy = -5.65375851 eV
K 17.022109447025457 15.773752295863986 12.964579821079651
K 14.687990201417616 14.690682062330403 9.437600557934573
K 15.080779560611898 8.350410893643536 15.172065792179357
K 17.059231516884605 17.758429482616403 16.923672119582157
K 16.096254400644476 11.52181548655455 12.227576025561005
K 13.390802765610562 16.06738846212476 15.546529950755973
K 12.397079972649689 11.676608601982208 14.73974829516496
K 11.126403152209942 14.988104073185966 11.793148765901341
K 9.213305185168624 14.497979042976223 16.073004509616354
