9
Energy = -6.13360768 eV
K 11.55849566318282 13.280397474072302 9.051161672910995
K 14.393291398782166 9.796836241405504 9.094561387661855
K 10.57919922350197 9.469570876355384 11.250260601519189
K 16.018829604167763 13.924519790637724 9.833978842160143
K 8.779799616209486 13.291006561388762 12.425578393524656
K 12.799980065239899 15.440278155500478 12.685830332400652
K 14.309836392424627 11.109913797180443 13.200405225868861
K 8.656071515781221 9.645769225122214 15.157122058703312
K 11.637196958582022 12.774408316209023 16.033801923122166
