9
Energy = -5.97129995 eV
K 16.083576493218 13.536808576283647 11.447331135440152
K 15.496065788133684 10.04191948842935 13.995516048559379
K 14.080356425178044 16.861966476034876 9.279898955375772
K 15.959111816474314 14.24108197164726 15.893807233458338
K 12.941004616589398 16.290620150232726 13.674603805399551
K 11.811102444549157 13.103684224594577 16.487492571856095
K 10.177458629811966 15.156700062598373 10.45147073836878
K 11.906165268392735 11.65724162858557 12.214191333681581
K 11.63588554956736 8.708669859132403 15.70326270628544
