9
Energy = -6.13223264 eV
K 14.339706242911552 10.246313688425044 16.74684159575045
K 13.851511749594703 10.800518365930278 12.183536259814023
K 16.55152596966853 13.330315951536873 14.566459598773628
K 10.189675287623354 11.004767782282766 14.460155176799711
K 15.131561361990302 14.545284157286773 10.4184703590427
K 12.500095442446941 14.188953598877035 16.753282142935042
K 14.408425876836183 -0.12344294618958045 14.099528349456284
K 11.571623933941183 12.77940832549447 8.478540363621427
K 11.083176924469557 14.754182227490661 12.494797942055621
