9
Energy = -5.55726161 eV
K 16.258518033362364 9.438837845616654 14.710571740506122
K -0.04698881253588019 12.843701001678939 16.953342610274923
K 13.750426805123395 12.37808148892285 16.89971008886516
K 13.937309314022393 12.266298190469021 12.255594871311843
K 12.07256179096995 12.453049576468883 8.273491049245047
K 15.46660777746757 15.803470403762283 14.45220090732715
K 10.65938275191579 15.172652058841331 11.195745976617548
K 10.999736383795945 15.511390121396696 15.650798747549127
K 12.430569121587295 0.7216939103214343 13.17277425869447
