9
Energy = -5.82115268 eV
K 9.032582255 11.405306548478867 5.37952756255269
K 9.032582255 6.659857961521133 5.37952756255269
K 9.032582255 6.726703532544701 9.823133034903757
K 9.032582255 11.338460977455297 9.823133034903757
K 6.030062469898622 9.032582255 7.184476826809997
K 12.035102040101382 9.032582255 7.184476826809997
K 9.032582255 9.032582255 13.69076280210349
K 12.583611005382501 9.032582255 11.414101328557871
K 5.4815535046175015 9.032582255 11.414101328557871
