9
Energy = -6.12996013 eV
K 15.157077271969138 10.730803595229963 9.05160753947675
K 10.612801047338307 11.49922787657591 9.040673834164568
K 13.34370284895652 15.162326708565454 9.073472171129659
K 9.675246086668226 15.015205899992836 11.648682235182426
K 9.164031130893349 10.861852279344633 13.237946380751026
K 13.685624525258717 12.648015314018876 12.663795324968781
K 12.29234567305073 8.247732602658312 11.52035252559221
K 11.073743614463995 14.05010525085409 15.868157837447827
K 12.86718796642086 9.6564906377799 15.767072316306852
