9
Energy = -6.16063247 eV
K 7.450785847760861 12.200771114548571 9.293935087320735
K 5.807011529139318 7.83470833967677 9.883133242970775
K 6.347582574401935 9.319257785602009 5.7971914513003275
K 9.67498716962316 7.064262842020446 7.477543585655614
K 9.697099015257665 5.389351953562456 11.514476415713904
K 11.909402019593088 12.665052225103473 10.819984923575316
K 9.134107856130997 9.649190367037864 12.296828936937185
K 10.787429826313636 11.132704384191257 6.700459390547729
K 13.01889045500503 8.57199640180612 10.04374296597853
