9
Energy = -6.05215093 eV
K 16.710156090106718 12.817890202897116 9.256985221056636
K 13.711846022737374 10.02823334533487 10.474806588952198
K 16.08374524899939 16.036325656192595 12.057292558563478
K 15.353893203819018 12.072269603412835 14.247500944625378
K 11.970804090297593 14.180788961706334 11.108812432021095
K 13.132062977142457 15.901922817771405 15.084035104793687
K 11.074573059668207 10.627580546613473 13.789473070822968
K 12.32865779148725 12.419069348886115 0.02208637003851458
K 9.073654902451217 14.34954050291434 14.639936916735769
