9
Energy = -5.93097417 eV
K 15.72685249197385 16.83811184625947 16.4414437584591
K 14.48761694024962 14.933513122972037 12.756656564003514
K 14.614932715231888 16.47396982403233 8.238506445609856
K 16.025363970481 12.37390674156687 16.409692217405123
K 11.737347444859147 14.865278176139805 16.611740781905166
K 13.00351351607218 12.696082369721552 9.365311757075045
K 14.938246102957565 10.404314494838493 12.744152317584886
K 10.274458915846749 13.088511955297719 12.969824682883438
K 12.002130925963534 10.488749862215286 16.10600424327972
