9
Energy = -6.00294616 eV
K 16.148314182349395 17.961151926113395 11.997669664465626
K 13.602050853217104 18.7410016360412 15.513317149173519
K 17.711719421930233 15.409833175015244 15.323695921533
K 15.513608864821217 16.765905005120178 0.16077260114990644
K 12.013394247850174 16.243234825563608 12.361892153428693
K 13.523723302394293 14.068054183808563 15.97159325340178
K 15.847463881658898 13.504619361864481 11.933048560121854
K 11.670868352771892 11.76648508291264 12.584600634867938
K 15.058239052679449 9.103185059124165 12.414386849423822
