9
Energy = -3.61509401 eV
K 9.954391 12.877965359338155 9.97426994983771
K 7.07357674703348 9.954391 8.34612045486485
K 12.835205252966805 9.954391 8.34612045486485
K 9.954391 12.12823565802948 5.631252310865261
K 9.954391 9.954391 16.393626337360686
K 12.17630923693477 9.954391 12.64630333692984
K 9.954391 7.030816640661842 9.97426994983771
K 7.732472763065228 9.954391 12.64630333692984
K 9.954391 7.7805463419705205 5.631252310865261
