5
Energy = -6.30747139 eV
Ag 12.110198097494838 12.097503668245796 10.880821255275492
Ag 9.758196198211923 8.03392100516933 9.14985850609867
Ag 10.141974533743083 10.455416797040751 10.12208092658391
Ag 9.989994490490353 13.279372124749388 9.918672302660891
Ag 8.112225825690619 6.2195029118301655 10.06508153122628
