53
Energy = -116.29010396 eV
Ag 15.800372889461602 7.306318702756588 12.992217805820758
Ag 14.156200347357927 8.202128265922356 15.091516799137949
Ag 13.129503015182213 6.400724373908862 13.08482776178653
Ag 16.238234168937783 9.969083294967078 13.939789282526064
Ag 14.891619637391445 10.75143881762166 16.340710637936464
Ag 14.930757468524702 13.576001482853426 16.640936578660934
Ag 14.156656769835156 7.213539414384683 10.619331361789888
Ag 16.318303401669574 9.18024449598576 10.959282565423779
Ag 16.266687848510447 12.795448079557492 14.374157993553464
Ag 13.880672869784748 9.373972603192355 12.525079234504261
Ag 15.192151012381174 15.687301068981846 14.754224412926378
Ag 11.308257351324896 8.20236733754981 13.972094751564972
Ag 12.186606976252705 9.957825336902866 15.90214792855413
Ag 15.642505944834394 11.723823032770289 11.773607587162395
Ag 12.430109515178716 12.411495027608328 16.99398711328152
Ag 14.350036848474435 14.114173607479138 12.532233841518638
Ag 11.351651551137968 14.986963069781611 17.22204128357412
Ag 10.70349229605142 6.86454321660111 11.540612535212144
Ag 13.705395156330312 11.788032976070214 14.054291229429786
Ag 13.94548239815609 9.720563440763025 9.48445706513842
Ag 16.218751043640953 11.318270090106603 9.034931808863428
Ag 12.79915770474655 14.349919440252744 14.990494249720138
Ag 15.040827626164452 13.753914087416243 9.869239547007158
Ag 9.433641600651226 9.99956238184536 15.264197210190716
Ag 10.19502943989681 13.053972507442374 15.241362134516365
Ag 15.865104958177632 13.525301751900777 7.26017493651944
Ag 11.151587287701847 11.069116997659709 13.416467030446764
Ag 11.874189358730078 7.759577471920992 9.046119210072344
Ag 12.776619133584102 17.099506286705285 15.717019735755542
Ag 11.52198065451126 9.463735422412384 11.200155834704619
Ag 12.981899072307133 16.498325787670325 12.979288026965758
Ag 8.299763843711206 11.716203732646331 13.32298051164205
Ag 12.675558227983721 15.190916181178874 10.491185886696341
Ag 13.398189296009832 14.874283282755531 7.772391773018236
Ag 10.36198021632954 15.955572980505636 14.791784083869803
Ag 12.840296229851267 12.05120388867099 11.001807360334348
Ag 11.373792552612452 13.841705971662549 12.68769180653151
Ag 9.969614927907841 12.017880392284662 10.996535401748044
Ag 8.553908814769244 14.453133626368837 13.299833906293347
Ag 13.614919054155076 12.079744955868161 8.018300237117563
Ag 7.374324992373006 10.543085674194836 10.938653563828858
Ag 11.218881498813325 18.470696929574785 13.757996232654852
Ag 11.34948851934226 10.581037297480306 8.611621870225642
Ag 8.986853500102788 8.985502707497783 12.612870908858783
Ag 11.267444175000694 17.55318849551165 11.035672087340801
Ag 10.930978890662598 16.162536539977264 8.48547905245012
Ag 11.170734618229412 13.371765045226924 8.75276988022591
Ag 8.982351573386994 17.134395569000613 12.695373528640475
Ag 7.523203825587468 13.368300427040426 10.902447613815008
Ag 8.656710230015893 11.598654608505145 8.637773112671145
Ag 9.269451456221624 8.881923735113102 9.7150404552702
Ag 9.68177650927436 15.199656665076638 10.799099608805447
Ag 8.584294870070273 14.413102863590904 8.41438249182473
