51
Energy = -111.72464531 eV
Ag 16.953839644066655 9.39248895892491 10.209547742345157
Ag 15.104499013650669 7.417576396354327 10.94038738776964
Ag 16.043356734305263 11.879521124516435 8.981579065219595
Ag 16.92686351600465 11.63366812009359 11.816880871001928
Ag 12.536363657546897 7.339482376920048 9.819608357939527
Ag 16.462713749561484 14.11067224990799 10.665845641818622
Ag 14.201453184966258 7.188615900321526 13.580817058783406
Ag 14.303715162028123 9.632289263614123 9.375801921935832
Ag 15.995926313456447 9.236883187281741 12.87521375448628
Ag 10.049050521386148 7.409357078774333 8.40908552916265
Ag 13.260311371919007 11.991143059769502 8.267901519742047
Ag 14.152447158203756 12.092736542197606 11.032809021897217
Ag 11.606499746878917 6.897448150232499 12.580248552707971
Ag 16.436489995231526 11.361245910343587 14.662271802687279
Ag 11.66768281592958 9.657618295309124 8.35326608885132
Ag 14.526491035275907 14.46221030175001 8.695633245113681
Ag 14.896473616416845 9.144982714874224 15.480289451213904
Ag 15.323292539886953 13.534073404557796 13.188199692930157
Ag 14.043213528675201 15.369835674661681 11.354063680126343
Ag 13.026380742926717 9.311257855619706 11.902226812568685
Ag 12.16420235984259 8.816577403759293 14.667870417535509
Ag 11.436561960765856 11.383797289877535 10.567707010220376
Ag 13.747477763771588 11.200309715290489 13.863686154652111
Ag 8.916027194103227 10.045273927255801 8.82200376074583
Ag 10.418671662037879 12.34907793369584 8.133581844861187
Ag 12.04446440807303 14.000796085450611 9.871878453534567
Ag 12.85481059044049 10.697954327685988 16.675433899815946
Ag 10.322553903142106 8.69001953173727 10.857858166502867
Ag 14.389996059350576 13.124083726952758 15.872948241996532
Ag 12.286329711988268 13.46420592683455 12.69482029457805
Ag 13.639775710500697 15.446400205194212 14.26476015735071
Ag 12.065606161501808 16.69976403430003 9.677740580987397
Ag 9.600671044296224 14.954912916889578 8.93301486198469
Ag 7.9048158228418925 12.597064961170137 9.461947455868046
Ag 8.66135908275069 10.831001582008236 11.545772438770364
Ag 9.527744804875825 8.638906670629368 13.53176462215861
Ag 12.506353933729308 15.13682570152841 16.75840628913693
Ag 10.944779047615953 11.036398281699839 13.225000591761773
Ag 12.066841816948298 16.981582700134613 12.467312082283208
Ag 9.706902728851922 13.631952782406957 11.566728840549434
Ag 10.076647708574605 10.50195392117509 15.790144226575269
Ag 11.633058997782026 12.851882934226072 15.468064927484548
Ag 12.063233101468372 17.568002757696114 15.251691344845453
Ag 10.684684533739329 15.28581792764371 14.473134583176025
Ag 9.636142839138051 16.66477259487749 11.124623903606436
Ag 7.350057918058687 15.071065409107222 10.614525742025712
Ag 7.003485420673766 12.929094379434797 12.439758148507577
Ag 7.68340418284058 10.658316366481401 14.125478888579769
Ag 9.687625707938295 17.7892372966398 13.695891521629052
Ag 9.109073655051748 13.001366520360612 14.317651689151178
Ag 8.133325723041953 15.45813789504791 13.265325247827542
