44
Energy = -94.73643196 eV
Ag 15.601574766531456 8.971844053518247 11.96922696764879
Ag 12.834413552681637 8.737098736464299 12.819398862394463
Ag 13.489244451958257 8.651693860410987 10.149092322008848
Ag 11.209308040361238 8.318787126987056 8.604861866308806
Ag 14.65229422369227 10.535092923387877 14.012534998209846
Ag 14.965951679469777 11.07537069937485 10.258823320255482
Ag 11.841088975587422 6.743020611557046 14.53618331146414
Ag 16.55455452625859 11.87792026358252 12.560030616048287
Ag 12.968806733581006 10.50413197655861 8.159836853511992
Ag 10.776801357309175 10.07928576014313 6.440017661272715
Ag 10.394480521036696 9.109231651449965 14.234823743630296
Ag 12.828784005737232 9.026655635857587 15.645642452927008
Ag 16.89205176004327 11.302596726484037 15.461527105753435
Ag 10.380754415492296 8.947076693906778 11.29049336994665
Ag 11.998510782728445 11.468537663647329 13.943531910712439
Ag 13.263193571419977 13.02865964058495 9.267668482793884
Ag 15.77207962527347 13.84127617926533 10.471920689571245
Ag 10.125517960151184 10.813977736486695 9.053236832814152
Ag 14.255155826414253 11.11118211333165 16.689719548586524
Ag 11.32598750031572 12.721679941580062 7.267710289926468
Ag 12.175235633121934 11.100883771178394 11.100145574886763
Ag 13.955035007643533 12.90159565480071 12.378327416153875
Ag 10.3579379703584 13.515326658603314 9.79189505398088
Ag 9.429295713310122 11.63934550098649 11.679942040489225
Ag 15.891286538390247 13.112040184707176 17.52776697466787
Ag 8.029405334260915 9.641475501496593 12.871811629287109
Ag 13.25305438262083 15.232640113634089 10.894493500001353
Ag 11.289920974546728 13.716140292008728 12.394937048517818
Ag 11.344935090482727 11.262369083339273 16.600706822878436
Ag 15.327880969054783 15.473919309545677 12.772960076232994
Ag 11.90057326241449 15.36143300272494 8.397917460227484
Ag 15.30692999636489 13.433455299086674 14.790992722836718
Ag 9.142539916363797 11.570199802550334 14.738769631698858
Ag 13.222760980687918 13.661500685062231 16.72355089277964
Ag 8.614976047445767 14.408514037617426 11.925627652643028
Ag 7.044988891477562 12.298298321165351 13.046309397429765
Ag 12.79081493984139 17.72496589194803 9.795852249163875
Ag 10.77930457263991 13.748735106535861 15.393231812788363
Ag 12.987290899108652 15.006814062743517 14.251948515349568
Ag 12.595862457380768 17.27189812280987 12.608616582963617
Ag 10.253497988057525 15.978680538187147 13.722644185887662
Ag 8.133388765820108 14.235959617548238 14.708707880952561
Ag 10.587190239996007 16.179188770850885 10.880775116207106
Ag 15.45149392209995 16.655655445821406 10.16194332572182
