45
Energy = -97.57251634 eV
Ag 13.450135995463693 11.236435711947886 8.167095428021637
Ag 15.030426337729658 12.520978259141058 10.173696498284702
Ag 15.556778055565966 9.818391496480201 9.625424854406306
Ag 11.38436707947441 9.927126709262945 6.594621018887115
Ag 13.95139650833462 15.074516744102112 11.186115015607134
Ag 12.924377790745115 8.421124341128985 8.375435934588877
Ag 12.902829236575876 13.92258086785294 8.853812631981924
Ag 11.040139932198528 12.677635631178884 7.157954638338766
Ag 11.53497767522658 16.224717847454745 9.936147297159922
Ag 8.668136941499602 10.198218759359381 7.718585817050968
Ag 12.776755556002962 17.446015403140596 12.21464965463701
Ag 17.04168467793805 11.286274658738048 11.64287313407621
Ag 12.445689238408105 12.652269226420634 11.325914574393778
Ag 13.014262336456929 9.912074413229206 10.748673074700676
Ag 10.17514925213501 7.905148686656754 8.186806977315797
Ag 14.158560422286977 7.326572966784782 10.620326009670002
Ag 10.131801488665255 17.38857616219647 13.153910938038027
Ag 16.096041148518726 13.810263580903408 12.460792407142051
Ag 8.288440644874102 11.605834151642055 10.193345315284734
Ag 14.904769866177027 16.221963848612596 13.611230714179815
Ag 10.864374082452901 10.852548738239374 9.217001593990457
Ag 11.22547787384458 14.9526662309066 12.334317001951536
Ag 11.316903899879573 7.503444738010372 10.672408331576422
Ag 13.037326530701318 10.861354582599358 13.365917705019873
Ag 12.267504865489514 16.229886906855917 14.69177148813236
Ag 8.915148943804912 15.851147677781269 11.034885359079826
Ag 15.288671782260199 9.284460550543685 12.430073207395191
Ag 10.182388611862018 13.678377537700328 9.743771204847844
Ag 8.91842517760607 8.909039078532231 10.469681090474964
Ag 10.52144154554066 10.802956380336859 11.978508891710339
Ag 13.664384339997206 13.758625341252024 13.935913263037632
Ag 15.63451083090081 11.59678281374073 14.113820788444945
Ag 12.747303188126086 8.07498049386254 13.02989143366597
Ag 11.082865022371456 12.697945964680537 14.118482003126552
Ag 13.210924235356327 11.735993353356438 15.95554434563453
Ag 7.9221356656872715 10.488835732475218 12.833232044142106
Ag 9.62432602473428 15.002760054496203 14.673925479352494
Ag 11.73945266927126 14.148861633215292 16.445358416374834
Ag 8.891401197503487 13.279818571797598 12.329278354725512
Ag 9.876746141397412 8.341640890842271 13.15422609036054
Ag 14.392346049020471 9.218875478375898 15.156182091875374
Ag 11.52381799970249 9.36628160070049 15.294205190666329
Ag 8.768161758618458 9.670420706261016 15.410546171085192
Ag 10.44145186943482 11.614350085284153 16.64497030022181
Ag 8.371509293754794 12.406945175513858 14.924396002936577
