15
Energy = -28.74439599 eV
Ag 10.689771279980205 8.645465942689762 12.772143888330394
Ag 8.076434124091826 7.700794434138052 12.763886326389706
Ag 9.663303268436243 7.690551906058906 10.41931683454652
Ag 6.879314075283329 8.262949870621823 10.259514420120082
Ag 12.727519615809575 8.206661498865504 10.830583790627696
Ag 11.351193155009806 8.455751656418041 8.348182829797155
Ag 8.472858768302245 10.171768333077548 11.513141093914323
Ag 11.098938372900793 10.367647165331142 10.567034196576502
Ag 8.756295174094628 9.428785243191113 8.452402477905164
Ag 13.345354374356672 10.313640001700781 8.908028840286839
Ag 6.642993784961568 10.947584123786326 9.385348322410769
Ag 10.87302308356777 11.088809299233933 7.546451184549175
Ag 9.202696447587092 12.111008825577587 9.61779464591492
Ag 11.994040733462098 12.75454312786634 9.479635587533767
Ag 8.154138244404873 11.781913073691591 7.064410063345856
